data_image0
_chemical_formula_structural       C3OC5ONCN2C3OC2OC3H13
_chemical_formula_sum              "C17 O4 N3 H13"
_cell_length_a       30
_cell_length_b       30
_cell_length_c       30
_cell_angle_alpha    90
_cell_angle_beta     90
_cell_angle_gamma    90

_space_group_name_H-M_alt    "P 1"
_space_group_IT_number       1

loop_
  _space_group_symop_operation_xyz
  'x, y, z'

loop_
  _atom_site_type_symbol
  _atom_site_label
  _atom_site_symmetry_multiplicity
  _atom_site_fract_x
  _atom_site_fract_y
  _atom_site_fract_z
  _atom_site_occupancy
  C   C1        1.0  0.25474  0.02113  0.03733  1.0000
  C   C2        1.0  0.21486  0.01970  0.03391  1.0000
  C   C3        1.0  0.16589  0.01789  0.02978  1.0000
  O   O1        1.0  0.15473  0.99036  0.99262  1.0000
  C   C4        1.0  0.11008  0.98173  0.98769  1.0000
  C   C5        1.0  0.09974  0.94601  0.95988  1.0000
  C   C6        1.0  0.05532  0.93347  0.95332  1.0000
  C   C7        1.0  0.01994  0.95674  0.97374  1.0000
  C   C8        1.0  0.97076  0.94076  0.96279  1.0000
  O   O2        1.0  0.96748  0.93290  0.92236  1.0000
  N   N1        1.0  0.93441  0.93465  0.99046  1.0000
  C   C9        1.0  0.92910  0.95753  0.03010  1.0000
  N   N2        1.0  0.96337  0.95622  0.05936  1.0000
  N   N3        1.0  0.97973  0.00243  0.06821  1.0000
  C   C10       1.0  0.99545  0.02018  0.02960  1.0000
  C   C11       1.0  0.96418  0.04805  0.00493  1.0000
  C   C12       1.0  0.92036  0.03847  0.00423  1.0000
  O   O3        1.0  0.89041  0.06084  0.97722  1.0000
  C   C13       1.0  0.85297  0.03135  0.97724  1.0000
  C   C14       1.0  0.81346  0.05468  0.99895  1.0000
  O   O4        1.0  0.86106  0.99006  0.99934  1.0000
  C   C15       1.0  0.89932  0.99899  0.02744  1.0000
  C   C16       1.0  0.03077  0.99331  0.00099  1.0000
  C   C17       1.0  0.07554  0.00532  0.00793  1.0000
  H   H1        1.0  0.29007  0.02211  0.04026  1.0000
  H   H2        1.0  0.15346  0.05184  0.02441  1.0000
  H   H3        1.0  0.15185  0.00419  0.06064  1.0000
  H   H4        1.0  0.12615  0.92725  0.94387  1.0000
  H   H5        1.0  0.04755  0.90520  0.93209  1.0000
  H   H6        1.0  0.90653  0.93530  0.97177  1.0000
  H   H7        1.0  0.97792  0.07444  0.98471  1.0000
  H   H8        1.0  0.84462  0.02380  0.94250  1.0000
  H   H9        1.0  0.78397  0.03321  0.99880  1.0000
  H   H10       1.0  0.80578  0.08595  0.98179  1.0000
  H   H11       1.0  0.82078  0.06291  0.03377  1.0000
  H   H12       1.0  0.88647  0.00833  0.06038  1.0000
  H   H13       1.0  0.08118  0.03272  0.03078  1.0000
