data_image0
_chemical_formula_structural       C3NCONCOC2OC6NH21
_chemical_formula_sum              "C13 N3 O3 H21"
_cell_length_a       30
_cell_length_b       30
_cell_length_c       30
_cell_angle_alpha    90
_cell_angle_beta     90
_cell_angle_gamma    90

_space_group_name_H-M_alt    "P 1"
_space_group_IT_number       1

loop_
  _space_group_symop_operation_xyz
  'x, y, z'

loop_
  _atom_site_type_symbol
  _atom_site_label
  _atom_site_symmetry_multiplicity
  _atom_site_fract_x
  _atom_site_fract_y
  _atom_site_fract_z
  _atom_site_occupancy
  C   C1        1.0  0.18805  0.07889  0.06345  1.0000
  C   C2        1.0  0.15571  0.05907  0.07625  1.0000
  C   C3        1.0  0.11622  0.03473  0.09172  1.0000
  N   N1        1.0  0.08435  0.03060  0.05583  1.0000
  C   C4        1.0  0.08297  0.99244  0.03017  1.0000
  O   O1        1.0  0.10482  0.95909  0.03850  1.0000
  N   N2        1.0  0.05297  0.99715  0.99585  1.0000
  C   C5        1.0  0.04419  0.96255  0.96674  1.0000
  O   O2        1.0  0.07303  0.93920  0.94913  1.0000
  C   C6        1.0  0.99444  0.95905  0.95200  1.0000
  C   C7        1.0  0.96429  0.95767  0.99357  1.0000
  O   O3        1.0  0.96527  0.00026  0.01573  1.0000
  C   C8        1.0  0.93639  0.00178  0.05367  1.0000
  C   C9        1.0  0.88895  0.01377  0.03982  1.0000
  C   C10       1.0  0.85855  0.01912  0.07994  1.0000
  C   C11       1.0  0.98287  0.99764  0.92051  1.0000
  C   C12       1.0  0.99098  0.97813  0.87462  1.0000
  C   C13       1.0  0.97535  0.93051  0.88007  1.0000
  N   N3        1.0  0.98859  0.91723  0.92525  1.0000
  H   H1        1.0  0.21694  0.09608  0.05195  1.0000
  H   H2        1.0  0.12528  0.00192  0.10484  1.0000
  H   H3        1.0  0.09972  0.05343  0.11835  1.0000
  H   H4        1.0  0.07686  0.05916  0.03971  1.0000
  H   H5        1.0  0.02546  0.01406  0.00597  1.0000
  H   H6        1.0  0.97583  0.93196  0.01688  1.0000
  H   H7        1.0  0.92995  0.94995  0.98378  1.0000
  H   H8        1.0  0.93762  0.97026  0.07213  1.0000
  H   H9        1.0  0.94950  0.02779  0.07569  1.0000
  H   H10       1.0  0.87531  0.98815  0.01767  1.0000
  H   H11       1.0  0.88939  0.04470  0.02034  1.0000
  H   H12       1.0  0.87050  0.04564  0.10197  1.0000
  H   H13       1.0  0.82478  0.02774  0.06916  1.0000
  H   H14       1.0  0.85675  0.98817  0.09918  1.0000
  H   H15       1.0  0.94760  0.00690  0.92350  1.0000
  H   H16       1.0  0.00296  0.02767  0.92560  1.0000
  H   H17       1.0  0.02660  0.97915  0.86647  1.0000
  H   H18       1.0  0.97269  0.99595  0.84859  1.0000
  H   H19       1.0  0.98957  0.90835  0.85483  1.0000
  H   H20       1.0  0.93896  0.92866  0.87742  1.0000
  H   H21       1.0  0.01975  0.90287  0.92317  1.0000
