data_image0
_chemical_formula_structural       C3NC2NCOC2NC6NH16
_chemical_formula_sum              "C14 N4 O1 H16"
_cell_length_a       30
_cell_length_b       30
_cell_length_c       30
_cell_angle_alpha    90
_cell_angle_beta     90
_cell_angle_gamma    90

_space_group_name_H-M_alt    "P 1"
_space_group_IT_number       1

loop_
  _space_group_symop_operation_xyz
  'x, y, z'

loop_
  _atom_site_type_symbol
  _atom_site_label
  _atom_site_symmetry_multiplicity
  _atom_site_fract_x
  _atom_site_fract_y
  _atom_site_fract_z
  _atom_site_occupancy
  C   C1        1.0  0.18534  0.03479  0.07405  1.0000
  C   C2        1.0  0.17218  0.02439  0.03768  1.0000
  C   C3        1.0  0.15599  0.01173  0.99325  1.0000
  N   N1        1.0  0.13541  0.96763  0.99560  1.0000
  C   C4        1.0  0.11791  0.95323  0.95222  1.0000
  C   C5        1.0  0.07293  0.97450  0.94006  1.0000
  N   N2        1.0  0.04009  0.96843  0.97524  1.0000
  C   C6        1.0  0.00256  0.99502  0.97729  1.0000
  O   O1        1.0  0.99767  0.02675  0.95193  1.0000
  C   C7        1.0  0.97034  0.98210  0.01055  1.0000
  C   C8        1.0  0.97459  0.95328  0.04639  1.0000
  N   N3        1.0  0.93604  0.94970  0.07040  1.0000
  C   C9        1.0  0.90775  0.97653  0.05047  1.0000
  C   C10       1.0  0.86256  0.98671  0.06063  1.0000
  C   C11       1.0  0.83980  0.01569  0.03503  1.0000
  C   C12       1.0  0.86032  0.03731  0.99657  1.0000
  C   C13       1.0  0.83254  0.06906  0.96997  1.0000
  C   C14       1.0  0.90312  0.02763  0.98700  1.0000
  N   N4        1.0  0.92683  0.99757  0.01365  1.0000
  H   H1        1.0  0.19705  0.04379  0.10634  1.0000
  H   H2        1.0  0.18408  0.01128  0.96990  1.0000
  H   H3        1.0  0.13210  0.03679  0.98166  1.0000
  H   H4        1.0  0.10965  0.96950  0.01775  1.0000
  H   H5        1.0  0.11315  0.91704  0.95426  1.0000
  H   H6        1.0  0.14229  0.95885  0.92558  1.0000
  H   H7        1.0  0.05953  0.95891  0.90987  1.0000
  H   H8        1.0  0.07689  0.01014  0.93323  1.0000
  H   H9        1.0  0.03872  0.93810  0.98983  1.0000
  H   H10       1.0  0.00388  0.93480  0.05655  1.0000
  H   H11       1.0  0.84732  0.97068  0.08920  1.0000
  H   H12       1.0  0.80530  0.02352  0.04278  1.0000
  H   H13       1.0  0.85125  0.08327  0.94203  1.0000
  H   H14       1.0  0.82113  0.09673  0.99088  1.0000
  H   H15       1.0  0.80328  0.05210  0.95623  1.0000
  H   H16       1.0  0.92044  0.04242  0.95900  1.0000
