data_image0
_chemical_formula_structural       C3OC4NCNC2OC2OC2H14
_chemical_formula_sum              "C14 O3 N2 H14"
_cell_length_a       30
_cell_length_b       30
_cell_length_c       30
_cell_angle_alpha    90
_cell_angle_beta     90
_cell_angle_gamma    90

_space_group_name_H-M_alt    "P 1"
_space_group_IT_number       1

loop_
  _space_group_symop_operation_xyz
  'x, y, z'

loop_
  _atom_site_type_symbol
  _atom_site_label
  _atom_site_symmetry_multiplicity
  _atom_site_fract_x
  _atom_site_fract_y
  _atom_site_fract_z
  _atom_site_occupancy
  C   C1        1.0  0.13327  0.17867  0.96426  1.0000
  C   C2        1.0  0.14305  0.14314  0.97994  1.0000
  C   C3        1.0  0.15496  0.09967  0.99911  1.0000
  O   O1        1.0  0.11901  0.08159  0.02467  1.0000
  C   C4        1.0  0.08750  0.05634  0.00332  1.0000
  C   C5        1.0  0.08205  0.05302  0.95701  1.0000
  C   C6        1.0  0.04839  0.02625  0.93829  1.0000
  C   C7        1.0  0.02009  0.00295  0.96712  1.0000
  N   N1        1.0  0.98503  0.97490  0.95887  1.0000
  C   C8        1.0  0.97112  0.96318  0.99886  1.0000
  N   N2        1.0  0.93734  0.93558  0.00982  1.0000
  C   C9        1.0  0.90593  0.92144  0.97521  1.0000
  C   C10       1.0  0.85782  0.92819  0.99147  1.0000
  O   O2        1.0  0.84740  0.90449  0.03176  1.0000
  C   C11       1.0  0.88538  0.89704  0.05992  1.0000
  C   C12       1.0  0.92141  0.93319  0.05586  1.0000
  O   O3        1.0  0.99487  0.98180  0.03323  1.0000
  C   C13       1.0  0.02625  0.00729  0.01256  1.0000
  C   C14       1.0  0.05898  0.03334  0.03237  1.0000
  H   H1        1.0  0.12437  0.21022  0.95056  1.0000
  H   H2        1.0  0.18271  0.10440  0.02240  1.0000
  H   H3        1.0  0.16699  0.07604  0.97398  1.0000
  H   H4        1.0  0.10322  0.07135  0.93405  1.0000
  H   H5        1.0  0.04418  0.02374  0.90248  1.0000
  H   H6        1.0  0.91044  0.93967  0.94387  1.0000
  H   H7        1.0  0.91169  0.88601  0.96837  1.0000
  H   H8        1.0  0.83424  0.91716  0.96591  1.0000
  H   H9        1.0  0.85141  0.96364  0.99763  1.0000
  H   H10       1.0  0.87330  0.89510  0.09429  1.0000
  H   H11       1.0  0.89919  0.86429  0.05137  1.0000
  H   H12       1.0  0.90731  0.96552  0.06552  1.0000
  H   H13       1.0  0.94885  0.92517  0.07861  1.0000
  H   H14       1.0  0.06225  0.03560  0.06824  1.0000
