data_image0
_chemical_formula_structural       C3NCOCOCOC5BrC5H16
_chemical_formula_sum              "C16 N1 O3 Br1 H16"
_cell_length_a       30
_cell_length_b       30
_cell_length_c       30
_cell_angle_alpha    90
_cell_angle_beta     90
_cell_angle_gamma    90

_space_group_name_H-M_alt    "P 1"
_space_group_IT_number       1

loop_
  _space_group_symop_operation_xyz
  'x, y, z'

loop_
  _atom_site_type_symbol
  _atom_site_label
  _atom_site_symmetry_multiplicity
  _atom_site_fract_x
  _atom_site_fract_y
  _atom_site_fract_z
  _atom_site_occupancy
  C   C1        1.0  0.14212  0.90400  0.07556  1.0000
  C   C2        1.0  0.13004  0.94035  0.08715  1.0000
  C   C3        1.0  0.11533  0.98454  0.10190  1.0000
  N   N1        1.0  0.09404  0.00754  0.06552  1.0000
  C   C4        1.0  0.08242  0.05182  0.06949  1.0000
  O   O1        1.0  0.09352  0.07518  0.10121  1.0000
  C   C5        1.0  0.05563  0.06994  0.03021  1.0000
  O   O2        1.0  0.03356  0.03431  0.00741  1.0000
  C   C6        1.0  0.00755  0.04794  0.97242  1.0000
  O   O3        1.0  0.00473  0.08714  0.96090  1.0000
  C   C7        1.0  0.98264  0.00717  0.95004  1.0000
  C   C8        1.0  0.93471  0.00331  0.97436  1.0000
  C   C9        1.0  0.89783  0.02907  0.96051  1.0000
  C   C10       1.0  0.85632  0.02647  0.98170  1.0000
  C   C11       1.0  0.85066  0.99804  0.01784  1.0000
  Br  Br1       1.0  0.79474  0.99467  0.04680  1.0000
  C   C12       1.0  0.88609  0.97223  0.03275  1.0000
  C   C13       1.0  0.92744  0.97506  0.01131  1.0000
  C   C14       1.0  0.01100  0.96319  0.94477  1.0000
  C   C15       1.0  0.99017  0.95719  0.89839  1.0000
  C   C16       1.0  0.98260  0.00784  0.89746  1.0000
  H   H1        1.0  0.15335  0.87192  0.06509  1.0000
  H   H2        1.0  0.09113  0.98172  0.12911  1.0000
  H   H3        1.0  0.14345  0.00452  0.11392  1.0000
  H   H4        1.0  0.07640  0.98934  0.04315  1.0000
  H   H5        1.0  0.03084  0.09329  0.04338  1.0000
  H   H6        1.0  0.07881  0.08683  0.00769  1.0000
  H   H7        1.0  0.90157  0.05212  0.93267  1.0000
  H   H8        1.0  0.82893  0.04689  0.96969  1.0000
  H   H9        1.0  0.88209  0.95009  0.06118  1.0000
  H   H10       1.0  0.95470  0.95477  0.02404  1.0000
  H   H11       1.0  0.04716  0.96880  0.94380  1.0000
  H   H12       1.0  0.00436  0.93613  0.96820  1.0000
  H   H13       1.0  0.01231  0.94412  0.87257  1.0000
  H   H14       1.0  0.95932  0.93761  0.89853  1.0000
  H   H15       1.0  0.01042  0.02648  0.88291  1.0000
  H   H16       1.0  0.95201  0.01835  0.88069  1.0000
