data_image0
_chemical_formula_structural       C6NC5NCNCNCNC2OC4H29
_chemical_formula_sum              "C20 N5 O1 H29"
_cell_length_a       30
_cell_length_b       30
_cell_length_c       30
_cell_angle_alpha    90
_cell_angle_beta     90
_cell_angle_gamma    90

_space_group_name_H-M_alt    "P 1"
_space_group_IT_number       1

loop_
  _space_group_symop_operation_xyz
  'x, y, z'

loop_
  _atom_site_type_symbol
  _atom_site_label
  _atom_site_symmetry_multiplicity
  _atom_site_fract_x
  _atom_site_fract_y
  _atom_site_fract_z
  _atom_site_occupancy
  C   C1        1.0  0.13413  0.10611  0.89982  1.0000
  C   C2        1.0  0.14178  0.06103  0.89205  1.0000
  C   C3        1.0  0.11674  0.02897  0.91467  1.0000
  C   C4        1.0  0.08340  0.04138  0.94527  1.0000
  C   C5        1.0  0.05713  0.00441  0.96926  1.0000
  C   C6        1.0  0.00896  0.01970  0.98356  1.0000
  N   N1        1.0  0.97815  0.98436  0.99938  1.0000
  C   C7        1.0  0.96334  0.95565  0.96244  1.0000
  C   C8        1.0  0.93292  0.91832  0.97925  1.0000
  C   C9        1.0  0.89310  0.93684  0.00487  1.0000
  C   C10       1.0  0.90904  0.96853  0.04168  1.0000
  C   C11       1.0  0.87043  0.98800  0.06917  1.0000
  N   N2        1.0  0.83928  0.01541  0.04476  1.0000
  C   C12       1.0  0.79876  0.00354  0.02826  1.0000
  N   N3        1.0  0.78001  0.03821  0.00923  1.0000
  C   C13       1.0  0.81069  0.07121  0.01570  1.0000
  N   N4        1.0  0.84750  0.05891  0.03752  1.0000
  C   C14       1.0  0.93950  0.00476  0.02197  1.0000
  N   N5        1.0  0.08603  0.98383  0.00367  1.0000
  C   C15       1.0  0.08990  0.00974  0.04522  1.0000
  C   C16       1.0  0.12352  0.98775  0.07710  1.0000
  O   O1        1.0  0.11099  0.94275  0.08739  1.0000
  C   C17       1.0  0.10763  0.91714  0.04714  1.0000
  C   C18       1.0  0.07354  0.93767  0.01480  1.0000
  C   C19       1.0  0.07658  0.08703  0.95303  1.0000
  C   C20       1.0  0.10166  0.11910  0.93035  1.0000
  H   H1        1.0  0.15364  0.13111  0.88232  1.0000
  H   H2        1.0  0.16736  0.05072  0.86858  1.0000
  H   H3        1.0  0.12351  0.99384  0.90864  1.0000
  H   H4        1.0  0.05218  0.97940  0.94297  1.0000
  H   H5        1.0  0.99327  0.03753  0.95565  1.0000
  H   H6        1.0  0.01263  0.04444  0.01025  1.0000
  H   H7        1.0  0.94582  0.97522  0.93696  1.0000
  H   H8        1.0  0.99192  0.93983  0.94619  1.0000
  H   H9        1.0  0.95198  0.89585  0.00093  1.0000
  H   H10       1.0  0.92115  0.89838  0.95100  1.0000
  H   H11       1.0  0.87117  0.95436  0.98145  1.0000
  H   H12       1.0  0.87382  0.90933  0.01922  1.0000
  H   H13       1.0  0.92919  0.94880  0.06513  1.0000
  H   H14       1.0  0.88346  0.00840  0.09658  1.0000
  H   H15       1.0  0.85123  0.96089  0.08446  1.0000
  H   H16       1.0  0.78499  0.97034  0.03081  1.0000
  H   H17       1.0  0.80603  0.10511  0.00424  1.0000
  H   H18       1.0  0.95119  0.02601  0.04934  1.0000
  H   H19       1.0  0.92120  0.02599  0.99849  1.0000
  H   H20       1.0  0.10123  0.04375  0.03841  1.0000
  H   H21       1.0  0.05755  0.01165  0.06214  1.0000
  H   H22       1.0  0.12464  0.00628  0.10852  1.0000
  H   H23       1.0  0.15723  0.98790  0.06295  1.0000
  H   H24       1.0  0.14068  0.91456  0.03172  1.0000
  H   H25       1.0  0.09709  0.88346  0.05641  1.0000
  H   H26       1.0  0.04078  0.93646  0.03078  1.0000
  H   H27       1.0  0.07240  0.91716  0.98461  1.0000
  H   H28       1.0  0.05200  0.09855  0.97698  1.0000
  H   H29       1.0  0.09593  0.15431  0.93671  1.0000
