data_image0
_chemical_formula_structural       C9NOCOC6NC3NCOC6H19
_chemical_formula_sum              "C26 N3 O3 H19"
_cell_length_a       30
_cell_length_b       30
_cell_length_c       30
_cell_angle_alpha    90
_cell_angle_beta     90
_cell_angle_gamma    90

_space_group_name_H-M_alt    "P 1"
_space_group_IT_number       1

loop_
  _space_group_symop_operation_xyz
  'x, y, z'

loop_
  _atom_site_type_symbol
  _atom_site_label
  _atom_site_symmetry_multiplicity
  _atom_site_fract_x
  _atom_site_fract_y
  _atom_site_fract_z
  _atom_site_occupancy
  C   C1        1.0  0.24850  0.03203  0.90236  1.0000
  C   C2        1.0  0.22458  0.07084  0.91108  1.0000
  C   C3        1.0  0.18364  0.06854  0.93322  1.0000
  C   C4        1.0  0.16620  0.02745  0.94717  1.0000
  C   C5        1.0  0.12290  0.02540  0.97040  1.0000
  C   C6        1.0  0.11520  0.99913  0.00581  1.0000
  C   C7        1.0  0.07232  0.00025  0.02952  1.0000
  C   C8        1.0  0.03121  0.00707  0.00792  1.0000
  C   C9        1.0  0.02872  0.01368  0.95912  1.0000
  N   N1        1.0  0.05720  0.03383  0.93332  1.0000
  O   O1        1.0  0.09121  0.05611  0.95664  1.0000
  C   C10       1.0  0.99146  0.00473  0.03241  1.0000
  O   O2        1.0  0.95085  0.01152  0.01236  1.0000
  C   C11       1.0  0.92687  0.97475  0.00065  1.0000
  C   C12       1.0  0.93829  0.93051  0.00453  1.0000
  C   C13       1.0  0.90417  0.90224  0.98995  1.0000
  C   C14       1.0  0.88906  0.91212  0.94689  1.0000
  C   C15       1.0  0.87689  0.95623  0.94255  1.0000
  C   C16       1.0  0.88423  0.98132  0.98166  1.0000
  N   N2        1.0  0.84704  0.96026  0.01606  1.0000
  C   C17       1.0  0.84735  0.98776  0.05688  1.0000
  C   C18       1.0  0.83343  0.03491  0.05133  1.0000
  C   C19       1.0  0.80121  0.05628  0.02670  1.0000
  N   N3        1.0  0.80270  0.10131  0.03465  1.0000
  C   C20       1.0  0.83577  0.10552  0.06305  1.0000
  O   O3        1.0  0.85595  0.06672  0.07518  1.0000
  C   C21       1.0  0.86198  0.91242  0.02241  1.0000
  C   C22       1.0  0.99242  0.99829  0.07854  1.0000
  C   C23       1.0  0.03301  0.99179  0.10008  1.0000
  C   C24       1.0  0.07263  0.99227  0.07565  1.0000
  C   C25       1.0  0.19055  0.98863  0.93776  1.0000
  C   C26       1.0  0.23148  0.99091  0.91559  1.0000
  H   H1        1.0  0.28024  0.03381  0.88500  1.0000
  H   H2        1.0  0.23760  0.10295  0.90053  1.0000
  H   H3        1.0  0.16538  0.09923  0.93953  1.0000
  H   H4        1.0  0.14080  0.97714  0.01882  1.0000
  H   H5        1.0  0.99952  0.99906  0.94225  1.0000
  H   H6        1.0  0.96873  0.91798  0.01896  1.0000
  H   H7        1.0  0.87919  0.88679  0.92321  1.0000
  H   H8        1.0  0.85656  0.96850  0.91543  1.0000
  H   H9        1.0  0.87976  0.98619  0.07374  1.0000
  H   H10       1.0  0.82366  0.97252  0.08027  1.0000
  H   H11       1.0  0.77744  0.04160  0.00392  1.0000
  H   H12       1.0  0.84866  0.13572  0.07786  1.0000
  H   H13       1.0  0.83467  0.88986  0.01343  1.0000
  H   H14       1.0  0.87179  0.90554  0.05698  1.0000
  H   H15       1.0  0.96161  0.99829  0.09758  1.0000
  H   H16       1.0  0.03391  0.98643  0.13592  1.0000
  H   H17       1.0  0.10399  0.98693  0.09313  1.0000
  H   H18       1.0  0.17760  0.95609  0.94705  1.0000
  H   H19       1.0  0.24988  0.96054  0.90844  1.0000
