data_image0
_chemical_formula_structural       C5NOC2NC7OC7NCNC3H32
_chemical_formula_sum              "C25 N4 O2 H32"
_cell_length_a       30
_cell_length_b       30
_cell_length_c       30
_cell_angle_alpha    90
_cell_angle_beta     90
_cell_angle_gamma    90

_space_group_name_H-M_alt    "P 1"
_space_group_IT_number       1

loop_
  _space_group_symop_operation_xyz
  'x, y, z'

loop_
  _atom_site_type_symbol
  _atom_site_label
  _atom_site_symmetry_multiplicity
  _atom_site_fract_x
  _atom_site_fract_y
  _atom_site_fract_z
  _atom_site_occupancy
  C   C1        1.0  0.27277  0.06470  0.10254  1.0000
  C   C2        1.0  0.23158  0.08453  0.09419  1.0000
  C   C3        1.0  0.20133  0.06427  0.06501  1.0000
  C   C4        1.0  0.21253  0.02448  0.04361  1.0000
  C   C5        1.0  0.18135  0.00225  0.01235  1.0000
  N   N1        1.0  0.19029  0.96511  0.99231  1.0000
  O   O1        1.0  0.15368  0.95470  0.96446  1.0000
  C   C6        1.0  0.11682  0.98265  0.97684  1.0000
  C   C7        1.0  0.08439  0.95701  0.00779  1.0000
  N   N2        1.0  0.05437  0.92318  0.98901  1.0000
  C   C8        1.0  0.07626  0.88269  0.97312  1.0000
  C   C9        1.0  0.03624  0.85765  0.95486  1.0000
  C   C10       1.0  0.00855  0.89385  0.93190  1.0000
  C   C11       1.0  0.02598  0.93789  0.95154  1.0000
  C   C12       1.0  0.99085  0.97161  0.96489  1.0000
  C   C13       1.0  0.95532  0.96036  0.99180  1.0000
  C   C14       1.0  0.92665  0.99447  0.00270  1.0000
  O   O2        1.0  0.88903  0.98221  0.02652  1.0000
  C   C15       1.0  0.86289  0.01874  0.04278  1.0000
  C   C16       1.0  0.82964  0.03563  0.00749  1.0000
  C   C17       1.0  0.79182  0.00173  0.00046  1.0000
  C   C18       1.0  0.75722  0.01928  0.96748  1.0000
  C   C19       1.0  0.73912  0.06543  0.97960  1.0000
  C   C20       1.0  0.76114  0.08600  0.02065  1.0000
  C   C21       1.0  0.81198  0.08235  0.01966  1.0000
  N   N3        1.0  0.93245  0.03714  0.99038  1.0000
  C   C22       1.0  0.96795  0.04472  0.96453  1.0000
  N   N4        1.0  0.99741  0.01412  0.95069  1.0000
  C   C23       1.0  0.13754  0.02214  0.00044  1.0000
  C   C24       1.0  0.25417  0.00503  0.05177  1.0000
  C   C25       1.0  0.28411  0.02508  0.08118  1.0000
  H   H1        1.0  0.29649  0.08050  0.12503  1.0000
  H   H2        1.0  0.22295  0.11570  0.11055  1.0000
  H   H3        1.0  0.16961  0.08069  0.05914  1.0000
  H   H4        1.0  0.09997  0.99430  0.94672  1.0000
  H   H5        1.0  0.10354  0.94085  0.03449  1.0000
  H   H6        1.0  0.06303  0.98165  0.02465  1.0000
  H   H7        1.0  0.09949  0.88975  0.94591  1.0000
  H   H8        1.0  0.09348  0.86381  0.99900  1.0000
  H   H9        1.0  0.04631  0.83084  0.93191  1.0000
  H   H10       1.0  0.01663  0.84272  0.98211  1.0000
  H   H11       1.0  0.01527  0.89299  0.89587  1.0000
  H   H12       1.0  0.97279  0.88779  0.93648  1.0000
  H   H13       1.0  0.04654  0.95304  0.92530  1.0000
  H   H14       1.0  0.94981  0.92690  0.00408  1.0000
  H   H15       1.0  0.84389  0.00517  0.07104  1.0000
  H   H16       1.0  0.88403  0.04530  0.05680  1.0000
  H   H17       1.0  0.84724  0.03845  0.97546  1.0000
  H   H18       1.0  0.80535  0.97004  0.98844  1.0000
  H   H19       1.0  0.77531  0.99470  0.03231  1.0000
  H   H20       1.0  0.77211  0.02071  0.93404  1.0000
  H   H21       1.0  0.72952  0.99554  0.96495  1.0000
  H   H22       1.0  0.70294  0.06325  0.98527  1.0000
  H   H23       1.0  0.74342  0.08776  0.95103  1.0000
  H   H24       1.0  0.74850  0.06958  0.05087  1.0000
  H   H25       1.0  0.75132  0.12106  0.02386  1.0000
  H   H26       1.0  0.82521  0.10638  0.99519  1.0000
  H   H27       1.0  0.82468  0.09335  0.05215  1.0000
  H   H28       1.0  0.97351  0.07877  0.95392  1.0000
  H   H29       1.0  0.11847  0.03317  0.02929  1.0000
  H   H30       1.0  0.14320  0.05008  0.97777  1.0000
  H   H31       1.0  0.26348  0.97410  0.03526  1.0000
  H   H32       1.0  0.31649  0.01006  0.08726  1.0000
