data_image0
_chemical_formula_structural       C4NCNCNC4NC2NC5H15
_chemical_formula_sum              "C17 N5 H15"
_cell_length_a       30
_cell_length_b       30
_cell_length_c       30
_cell_angle_alpha    90
_cell_angle_beta     90
_cell_angle_gamma    90

_space_group_name_H-M_alt    "P 1"
_space_group_IT_number       1

loop_
  _space_group_symop_operation_xyz
  'x, y, z'

loop_
  _atom_site_type_symbol
  _atom_site_label
  _atom_site_symmetry_multiplicity
  _atom_site_fract_x
  _atom_site_fract_y
  _atom_site_fract_z
  _atom_site_occupancy
  C   C1        1.0  0.18194  0.95685  0.97313  1.0000
  C   C2        1.0  0.15606  0.93402  0.00410  1.0000
  C   C3        1.0  0.11303  0.94895  0.01398  1.0000
  C   C4        1.0  0.09478  0.98644  0.99266  1.0000
  N   N1        1.0  0.05192  0.00091  0.00537  1.0000
  C   C5        1.0  0.02171  0.02915  0.98310  1.0000
  N   N2        1.0  0.02908  0.04610  0.94205  1.0000
  C   C6        1.0  0.99711  0.07247  0.92373  1.0000
  N   N3        1.0  0.95802  0.08414  0.94230  1.0000
  C   C7        1.0  0.95409  0.06699  0.98260  1.0000
  C   C8        1.0  0.98342  0.04058  0.00438  1.0000
  C   C9        1.0  0.95421  0.03518  0.04446  1.0000
  C   C10       1.0  0.93592  0.98681  0.04884  1.0000
  N   N4        1.0  0.95356  0.95489  0.07302  1.0000
  C   C11       1.0  0.92659  0.91855  0.06577  1.0000
  C   C12       1.0  0.89283  0.92861  0.03627  1.0000
  N   N5        1.0  0.89958  0.97216  0.02558  1.0000
  C   C13       1.0  0.87540  0.99950  0.99396  1.0000
  C   C14       1.0  0.87408  0.04853  0.00812  1.0000
  C   C15       1.0  0.92025  0.06736  0.01930  1.0000
  C   C16       1.0  0.12180  0.00952  0.96247  1.0000
  C   C17       1.0  0.16488  0.99471  0.95245  1.0000
  H   H1        1.0  0.21542  0.94543  0.96539  1.0000
  H   H2        1.0  0.16929  0.90472  0.02077  1.0000
  H   H3        1.0  0.09366  0.93079  0.03867  1.0000
  H   H4        1.0  0.03506  0.97711  0.02277  1.0000
  H   H5        1.0  0.00401  0.08530  0.89062  1.0000
  H   H6        1.0  0.96680  0.04850  0.07603  1.0000
  H   H7        1.0  0.93302  0.88696  0.08199  1.0000
  H   H8        1.0  0.86607  0.90881  0.02250  1.0000
  H   H9        1.0  0.89205  0.99539  0.96171  1.0000
  H   H10       1.0  0.84149  0.98627  0.99120  1.0000
  H   H11       1.0  0.85820  0.06855  0.98200  1.0000
  H   H12       1.0  0.85297  0.05149  0.03786  1.0000
  H   H13       1.0  0.91677  0.09986  0.03585  1.0000
  H   H14       1.0  0.10989  0.03966  0.94638  1.0000
  H   H15       1.0  0.18506  0.01307  0.92863  1.0000
