data_image0
_chemical_formula_structural       C9ONC8NC4OH24
_chemical_formula_sum              "C21 O2 N2 H24"
_cell_length_a       30
_cell_length_b       30
_cell_length_c       30
_cell_angle_alpha    90
_cell_angle_beta     90
_cell_angle_gamma    90

_space_group_name_H-M_alt    "P 1"
_space_group_IT_number       1

loop_
  _space_group_symop_operation_xyz
  'x, y, z'

loop_
  _atom_site_type_symbol
  _atom_site_label
  _atom_site_symmetry_multiplicity
  _atom_site_fract_x
  _atom_site_fract_y
  _atom_site_fract_z
  _atom_site_occupancy
  C   C1        1.0  0.95954  0.08850  0.99607  1.0000
  C   C2        1.0  0.94107  0.04840  0.00196  1.0000
  C   C3        1.0  0.91898  0.03345  0.04283  1.0000
  C   C4        1.0  0.91392  0.05258  0.08456  1.0000
  C   C5        1.0  0.89028  0.02890  0.11714  1.0000
  C   C6        1.0  0.87210  0.98667  0.10787  1.0000
  C   C7        1.0  0.87741  0.96739  0.06588  1.0000
  C   C8        1.0  0.90099  0.99145  0.03437  1.0000
  C   C9        1.0  0.91174  0.97917  0.98820  1.0000
  O   O1        1.0  0.89838  0.94546  0.97005  1.0000
  N   N1        1.0  0.93796  0.01370  0.97149  1.0000
  C   C10       1.0  0.95360  0.01374  0.92573  1.0000
  C   C11       1.0  0.98688  0.97703  0.91480  1.0000
  C   C12       1.0  0.97030  0.93826  0.89394  1.0000
  C   C13       1.0  0.99850  0.90381  0.88064  1.0000
  C   C14       1.0  0.04406  0.90754  0.88752  1.0000
  C   C15       1.0  0.06116  0.94536  0.90839  1.0000
  C   C16       1.0  0.03317  0.98007  0.92343  1.0000
  C   C17       1.0  0.05400  0.02052  0.94539  1.0000
  N   N2        1.0  0.09405  0.01203  0.97232  1.0000
  C   C18       1.0  0.08683  0.98477  0.01244  1.0000
  C   C19       1.0  0.13261  0.97632  0.03353  1.0000
  C   C20       1.0  0.05391  0.00386  0.04688  1.0000
  C   C21       1.0  0.06519  0.05005  0.06479  1.0000
  O   O2        1.0  0.03085  0.06506  0.09398  1.0000
  H   H1        1.0  0.97500  0.09868  0.96511  1.0000
  H   H2        1.0  0.95997  0.11305  0.02266  1.0000
  H   H3        1.0  0.92806  0.08499  0.09223  1.0000
  H   H4        1.0  0.88590  0.04336  0.15012  1.0000
  H   H5        1.0  0.85381  0.96893  0.13366  1.0000
  H   H6        1.0  0.86379  0.93483  0.05801  1.0000
  H   H7        1.0  0.96796  0.04597  0.91651  1.0000
  H   H8        1.0  0.92409  0.00991  0.90440  1.0000
  H   H9        1.0  0.93464  0.93463  0.88810  1.0000
  H   H10       1.0  0.98476  0.87428  0.86481  1.0000
  H   H11       1.0  0.06634  0.88106  0.87689  1.0000
  H   H12       1.0  0.09704  0.94767  0.91341  1.0000
  H   H13       1.0  0.06345  0.04335  0.91843  1.0000
  H   H14       1.0  0.02992  0.03837  0.96578  1.0000
  H   H15       1.0  0.10793  0.04181  0.98077  1.0000
  H   H16       1.0  0.07411  0.95199  0.00244  1.0000
  H   H17       1.0  0.15456  0.95874  0.01020  1.0000
  H   H18       1.0  0.14926  0.00737  0.04313  1.0000
  H   H19       1.0  0.12946  0.95552  0.06337  1.0000
  H   H20       1.0  0.02023  0.00424  0.03287  1.0000
  H   H21       1.0  0.05154  0.98073  0.07518  1.0000
  H   H22       1.0  0.06796  0.07450  0.03791  1.0000
  H   H23       1.0  0.09650  0.04993  0.08347  1.0000
  H   H24       1.0  0.02626  0.04199  0.11631  1.0000
