data_image0
_chemical_formula_structural       C7OC3NCNSNC2OCH17
_chemical_formula_sum              "C14 O2 N3 S1 H17"
_cell_length_a       30
_cell_length_b       30
_cell_length_c       30
_cell_angle_alpha    90
_cell_angle_beta     90
_cell_angle_gamma    90

_space_group_name_H-M_alt    "P 1"
_space_group_IT_number       1

loop_
  _space_group_symop_operation_xyz
  'x, y, z'

loop_
  _atom_site_type_symbol
  _atom_site_label
  _atom_site_symmetry_multiplicity
  _atom_site_fract_x
  _atom_site_fract_y
  _atom_site_fract_z
  _atom_site_occupancy
  C   C1        1.0  0.85290  0.90658  0.02984  1.0000
  C   C2        1.0  0.83055  0.94507  0.03373  1.0000
  C   C3        1.0  0.84935  0.99170  0.03452  1.0000
  C   C4        1.0  0.89957  0.99593  0.03221  1.0000
  C   C5        1.0  0.92424  0.99565  0.07198  1.0000
  C   C6        1.0  0.97057  0.99904  0.07105  1.0000
  C   C7        1.0  0.99315  0.00242  0.03060  1.0000
  O   O1        1.0  0.03852  0.00537  0.03446  1.0000
  C   C8        1.0  0.06358  0.00692  0.99393  1.0000
  C   C9        1.0  0.11419  0.01019  0.00476  1.0000
  C   C10       1.0  0.13926  0.03874  0.02853  1.0000
  N   N1        1.0  0.17585  0.02110  0.01296  1.0000
  C   C11       1.0  0.20949  0.04770  0.98782  1.0000
  N   N2        1.0  0.19210  0.07153  0.94813  1.0000
  S   S1        1.0  0.18980  0.04001  0.89967  1.0000
  N   N3        1.0  0.14993  0.99175  0.98773  1.0000
  C   C12       1.0  0.96892  0.00243  0.99081  1.0000
  C   C13       1.0  0.92226  0.99926  0.99127  1.0000
  O   O2        1.0  0.89596  0.99917  0.95384  1.0000
  C   C14       1.0  0.91771  0.00302  0.91189  1.0000
  H   H1        1.0  0.88894  0.90544  0.02659  1.0000
  H   H2        1.0  0.83537  0.87496  0.02942  1.0000
  H   H3        1.0  0.79442  0.94342  0.03648  1.0000
  H   H4        1.0  0.83400  0.01105  0.00755  1.0000
  H   H5        1.0  0.83782  0.00783  0.06529  1.0000
  H   H6        1.0  0.90744  0.99262  0.10395  1.0000
  H   H7        1.0  0.98940  0.99877  0.10203  1.0000
  H   H8        1.0  0.05417  0.03633  0.97438  1.0000
  H   H9        1.0  0.05776  0.97654  0.97448  1.0000
  H   H10       1.0  0.13135  0.06780  0.04855  1.0000
  H   H11       1.0  0.23771  0.02563  0.98016  1.0000
  H   H12       1.0  0.22323  0.07223  0.01131  1.0000
  H   H13       1.0  0.15642  0.99704  0.95385  1.0000
  H   H14       1.0  0.98648  0.00481  0.95940  1.0000
  H   H15       1.0  0.89204  0.00295  0.88597  1.0000
  H   H16       1.0  0.93962  0.97446  0.90582  1.0000
  H   H17       1.0  0.93592  0.03456  0.90936  1.0000
