data_image0
_chemical_formula_structural       C4SOC3NC8H29
_chemical_formula_sum              "C15 S1 O1 N1 H29"
_cell_length_a       30
_cell_length_b       30
_cell_length_c       30
_cell_angle_alpha    90
_cell_angle_beta     90
_cell_angle_gamma    90

_space_group_name_H-M_alt    "P 1"
_space_group_IT_number       1

loop_
  _space_group_symop_operation_xyz
  'x, y, z'

loop_
  _atom_site_type_symbol
  _atom_site_label
  _atom_site_symmetry_multiplicity
  _atom_site_fract_x
  _atom_site_fract_y
  _atom_site_fract_z
  _atom_site_occupancy
  C   C1        1.0  0.19034  0.04590  0.96882  1.0000
  C   C2        1.0  0.17420  0.00486  0.96157  1.0000
  C   C3        1.0  0.16614  0.96861  0.99565  1.0000
  C   C4        1.0  0.18173  0.97812  0.04317  1.0000
  S   S1        1.0  0.10748  0.95071  0.99350  1.0000
  O   O1        1.0  0.10142  0.91302  0.02583  1.0000
  C   C5        1.0  0.08145  0.00001  0.01738  1.0000
  C   C6        1.0  0.03058  0.99674  0.01601  1.0000
  C   C7        1.0  0.01199  0.00115  0.96856  1.0000
  N   N1        1.0  0.96348  0.00505  0.96380  1.0000
  C   C8        1.0  0.93861  0.96379  0.97184  1.0000
  C   C9        1.0  0.93002  0.95052  0.02050  1.0000
  C   C10       1.0  0.88075  0.94751  0.03333  1.0000
  C   C11       1.0  0.85837  0.99258  0.04183  1.0000
  C   C12       1.0  0.83949  0.01527  0.00018  1.0000
  C   C13       1.0  0.85980  0.06091  0.98981  1.0000
  C   C14       1.0  0.90125  0.05990  0.96014  1.0000
  C   C15       1.0  0.94440  0.04536  0.98351  1.0000
  H   H1        1.0  0.19945  0.05783  0.00173  1.0000
  H   H2        1.0  0.19506  0.06890  0.94123  1.0000
  H   H3        1.0  0.16651  0.99576  0.92722  1.0000
  H   H4        1.0  0.18472  0.93930  0.98407  1.0000
  H   H5        1.0  0.21788  0.98336  0.04395  1.0000
  H   H6        1.0  0.17434  0.95011  0.06539  1.0000
  H   H7        1.0  0.16612  0.00788  0.05737  1.0000
  H   H8        1.0  0.09205  0.00262  0.05217  1.0000
  H   H9        1.0  0.09270  0.02969  0.99948  1.0000
  H   H10       1.0  0.01720  0.02356  0.03691  1.0000
  H   H11       1.0  0.02010  0.96510  0.03087  1.0000
  H   H12       1.0  0.02335  0.97295  0.94823  1.0000
  H   H13       1.0  0.02710  0.03049  0.95272  1.0000
  H   H14       1.0  0.90718  0.96532  0.95338  1.0000
  H   H15       1.0  0.95650  0.93627  0.95559  1.0000
  H   H16       1.0  0.94486  0.91745  0.02564  1.0000
  H   H17       1.0  0.94697  0.97245  0.04421  1.0000
  H   H18       1.0  0.86205  0.92791  0.00880  1.0000
  H   H19       1.0  0.87913  0.92863  0.06465  1.0000
  H   H20       1.0  0.88058  0.01466  0.06059  1.0000
  H   H21       1.0  0.83006  0.98611  0.06415  1.0000
  H   H22       1.0  0.84055  0.99357  0.97086  1.0000
  H   H23       1.0  0.80387  0.02097  0.00656  1.0000
  H   H24       1.0  0.83441  0.08006  0.97166  1.0000
  H   H25       1.0  0.86637  0.07964  0.02050  1.0000
  H   H26       1.0  0.90648  0.09399  0.94779  1.0000
  H   H27       1.0  0.89458  0.04000  0.93019  1.0000
  H   H28       1.0  0.94015  0.04262  0.01962  1.0000
  H   H29       1.0  0.96818  0.07280  0.97875  1.0000
