data_image0
_chemical_formula_structural       C3OCOC9H20
_chemical_formula_sum              "C13 O2 H20"
_cell_length_a       30
_cell_length_b       30
_cell_length_c       30
_cell_angle_alpha    90
_cell_angle_beta     90
_cell_angle_gamma    90

_space_group_name_H-M_alt    "P 1"
_space_group_IT_number       1

loop_
  _space_group_symop_operation_xyz
  'x, y, z'

loop_
  _atom_site_type_symbol
  _atom_site_label
  _atom_site_symmetry_multiplicity
  _atom_site_fract_x
  _atom_site_fract_y
  _atom_site_fract_z
  _atom_site_occupancy
  C   C1        1.0  0.16489  0.94061  0.98451  1.0000
  C   C2        1.0  0.14497  0.97243  0.00869  1.0000
  C   C3        1.0  0.11692  0.00912  0.98974  1.0000
  O   O1        1.0  0.07400  0.00601  0.01017  1.0000
  C   C4        1.0  0.04437  0.03703  0.99534  1.0000
  O   O2        1.0  0.05253  0.06574  0.96757  1.0000
  C   C5        1.0  0.99953  0.03007  0.01768  1.0000
  C   C6        1.0  0.97572  0.07514  0.02445  1.0000
  C   C7        1.0  0.92825  0.06999  0.04278  1.0000
  C   C8        1.0  0.90010  0.03723  0.01547  1.0000
  C   C9        1.0  0.92470  0.99312  0.01144  1.0000
  C   C10       1.0  0.90350  0.95759  0.98212  1.0000
  C   C11       1.0  0.94244  0.92648  0.97040  1.0000
  C   C12       1.0  0.98535  0.95149  0.98297  1.0000
  C   C13       1.0  0.97018  0.99958  0.98940  1.0000
  H   H1        1.0  0.16178  0.93927  0.94848  1.0000
  H   H2        1.0  0.18478  0.91495  0.00052  1.0000
  H   H3        1.0  0.14904  0.97231  0.04471  1.0000
  H   H4        1.0  0.11373  0.00591  0.95348  1.0000
  H   H5        1.0  0.13218  0.04129  0.99792  1.0000
  H   H6        1.0  0.00526  0.01539  0.05072  1.0000
  H   H7        1.0  0.97393  0.09320  0.99266  1.0000
  H   H8        1.0  0.99531  0.09618  0.04704  1.0000
  H   H9        1.0  0.93009  0.05829  0.07738  1.0000
  H   H10       1.0  0.91181  0.10260  0.04352  1.0000
  H   H11       1.0  0.86772  0.03226  0.03161  1.0000
  H   H12       1.0  0.89360  0.05134  0.98238  1.0000
  H   H13       1.0  0.92912  0.97915  0.04507  1.0000
  H   H14       1.0  0.87655  0.93986  0.99916  1.0000
  H   H15       1.0  0.88971  0.97224  0.95161  1.0000
  H   H16       1.0  0.94025  0.89506  0.98887  1.0000
  H   H17       1.0  0.94188  0.91837  0.93481  1.0000
  H   H18       1.0  0.01089  0.94829  0.95712  1.0000
  H   H19       1.0  0.99902  0.93780  0.01398  1.0000
  H   H20       1.0  0.96590  0.01461  0.95619  1.0000
