data_image0
_chemical_formula_structural       C3NCOCNSC2O2C8H14
_chemical_formula_sum              "C15 N2 O3 S1 H14"
_cell_length_a       30
_cell_length_b       30
_cell_length_c       30
_cell_angle_alpha    90
_cell_angle_beta     90
_cell_angle_gamma    90

_space_group_name_H-M_alt    "P 1"
_space_group_IT_number       1

loop_
  _space_group_symop_operation_xyz
  'x, y, z'

loop_
  _atom_site_type_symbol
  _atom_site_label
  _atom_site_symmetry_multiplicity
  _atom_site_fract_x
  _atom_site_fract_y
  _atom_site_fract_z
  _atom_site_occupancy
  C   C1        1.0  0.22555  0.04742  0.94691  1.0000
  C   C2        1.0  0.20001  0.02927  0.97873  1.0000
  C   C3        1.0  0.18275  0.98252  0.97804  1.0000
  N   N1        1.0  0.13526  0.98473  0.97257  1.0000
  C   C4        1.0  0.10556  0.97970  0.00721  1.0000
  O   O1        1.0  0.11700  0.97035  0.04536  1.0000
  C   C5        1.0  0.05845  0.98700  0.99414  1.0000
  N   N2        1.0  0.04944  0.99883  0.95199  1.0000
  S   S1        1.0  0.99545  0.00585  0.94600  1.0000
  C   C6        1.0  0.98096  0.99339  0.99963  1.0000
  C   C7        1.0  0.93487  0.99520  0.01452  1.0000
  O   O2        1.0  0.92269  0.98989  0.05317  1.0000
  O   O3        1.0  0.90630  0.00375  0.97882  1.0000
  C   C8        1.0  0.86133  0.00606  0.99062  1.0000
  C   C9        1.0  0.83484  0.96822  0.98580  1.0000
  C   C10       1.0  0.78960  0.97085  0.99607  1.0000
  C   C11       1.0  0.77130  0.01116  0.01053  1.0000
  C   C12       1.0  0.79812  0.04900  0.01462  1.0000
  C   C13       1.0  0.84339  0.04663  0.00441  1.0000
  C   C14       1.0  0.01967  0.98274  0.02308  1.0000
  C   C15       1.0  0.02232  0.96922  0.07103  1.0000
  H   H1        1.0  0.23543  0.02888  0.91745  1.0000
  H   H2        1.0  0.23711  0.08161  0.94979  1.0000
  H   H3        1.0  0.19125  0.04920  0.00775  1.0000
  H   H4        1.0  0.19162  0.96531  0.00895  1.0000
  H   H5        1.0  0.19615  0.96351  0.94992  1.0000
  H   H6        1.0  0.12227  0.99512  0.94310  1.0000
  H   H7        1.0  0.84912  0.93702  0.97433  1.0000
  H   H8        1.0  0.76853  0.94156  0.99280  1.0000
  H   H9        1.0  0.73601  0.01310  0.01858  1.0000
  H   H10       1.0  0.78367  0.08030  0.02577  1.0000
  H   H11       1.0  0.86426  0.07604  0.00737  1.0000
  H   H12       1.0  0.03703  0.99609  0.09086  1.0000
  H   H13       1.0  0.98982  0.96119  0.08528  1.0000
  H   H14       1.0  0.04286  0.93928  0.07476  1.0000
