data_image0
_chemical_formula_structural       C3NC4ONC7H24
_chemical_formula_sum              "C14 N2 O1 H24"
_cell_length_a       30
_cell_length_b       30
_cell_length_c       30
_cell_angle_alpha    90
_cell_angle_beta     90
_cell_angle_gamma    90

_space_group_name_H-M_alt    "P 1"
_space_group_IT_number       1

loop_
  _space_group_symop_operation_xyz
  'x, y, z'

loop_
  _atom_site_type_symbol
  _atom_site_label
  _atom_site_symmetry_multiplicity
  _atom_site_fract_x
  _atom_site_fract_y
  _atom_site_fract_z
  _atom_site_occupancy
  C   C1        1.0  0.87035  0.06260  0.92825  1.0000
  C   C2        1.0  0.90758  0.04548  0.94604  1.0000
  C   C3        1.0  0.91548  0.99661  0.95327  1.0000
  N   N1        1.0  0.92410  0.98900  0.00055  1.0000
  C   C4        1.0  0.88537  0.98236  0.02916  1.0000
  C   C5        1.0  0.87029  0.93477  0.02576  1.0000
  C   C6        1.0  0.83049  0.92165  0.01030  1.0000
  C   C7        1.0  0.96591  0.98319  0.01928  1.0000
  O   O1        1.0  0.97152  0.97017  0.05771  1.0000
  N   N2        1.0  0.00113  0.99277  0.99164  1.0000
  C   C8        1.0  0.04727  0.98945  0.00723  1.0000
  C   C9        1.0  0.07735  0.98096  0.96681  1.0000
  C   C10       1.0  0.12714  0.97731  0.97689  1.0000
  C   C11       1.0  0.14836  0.02225  0.98757  1.0000
  C   C12       1.0  0.14545  0.03643  0.03631  1.0000
  C   C13       1.0  0.10253  0.02529  0.06117  1.0000
  C   C14       1.0  0.05974  0.03120  0.03428  1.0000
  H   H1        1.0  0.84283  0.04158  0.91771  1.0000
  H   H2        1.0  0.86661  0.09836  0.92401  1.0000
  H   H3        1.0  0.93399  0.06815  0.95612  1.0000
  H   H4        1.0  0.94377  0.98572  0.93299  1.0000
  H   H5        1.0  0.88683  0.97652  0.94282  1.0000
  H   H6        1.0  0.85911  0.00578  0.01938  1.0000
  H   H7        1.0  0.89384  0.98969  0.06392  1.0000
  H   H8        1.0  0.89384  0.90980  0.03753  1.0000
  H   H9        1.0  0.80584  0.94538  0.99857  1.0000
  H   H10       1.0  0.82185  0.88652  0.00920  1.0000
  H   H11       1.0  0.99521  0.01689  0.96905  1.0000
  H   H12       1.0  0.04907  0.96024  0.02919  1.0000
  H   H13       1.0  0.07189  0.00689  0.94154  1.0000
  H   H14       1.0  0.06669  0.94965  0.95108  1.0000
  H   H15       1.0  0.13345  0.95297  0.00339  1.0000
  H   H16       1.0  0.14334  0.96427  0.94679  1.0000
  H   H17       1.0  0.13375  0.04825  0.96641  1.0000
  H   H18       1.0  0.18379  0.02097  0.97854  1.0000
  H   H19       1.0  0.15107  0.07255  0.03787  1.0000
  H   H20       1.0  0.17328  0.02139  0.05471  1.0000
  H   H21       1.0  0.10442  0.99120  0.07425  1.0000
  H   H22       1.0  0.10096  0.04699  0.09059  1.0000
  H   H23       1.0  0.06163  0.06067  0.01273  1.0000
  H   H24       1.0  0.03288  0.03809  0.05815  1.0000
