data_image0
_chemical_formula_structural       C3NC4OCOC4ClC2ClH17
_chemical_formula_sum              "C14 N1 O2 Cl2 H17"
_cell_length_a       30
_cell_length_b       30
_cell_length_c       30
_cell_angle_alpha    90
_cell_angle_beta     90
_cell_angle_gamma    90

_space_group_name_H-M_alt    "P 1"
_space_group_IT_number       1

loop_
  _space_group_symop_operation_xyz
  'x, y, z'

loop_
  _atom_site_type_symbol
  _atom_site_label
  _atom_site_symmetry_multiplicity
  _atom_site_fract_x
  _atom_site_fract_y
  _atom_site_fract_z
  _atom_site_occupancy
  C   C1        1.0  0.86203  0.89815  0.97796  1.0000
  C   C2        1.0  0.89667  0.90792  0.00441  1.0000
  C   C3        1.0  0.90263  0.95106  0.02896  1.0000
  N   N1        1.0  0.94224  0.97337  0.01163  1.0000
  C   C4        1.0  0.93647  0.00149  0.97210  1.0000
  C   C5        1.0  0.92201  0.04879  0.98446  1.0000
  C   C6        1.0  0.91755  0.07810  0.94338  1.0000
  C   C7        1.0  0.98254  0.96721  0.03421  1.0000
  O   O1        1.0  0.98508  0.94336  0.06757  1.0000
  C   C8        1.0  0.02368  0.99112  0.01523  1.0000
  O   O2        1.0  0.06137  0.98606  0.04353  1.0000
  C   C9        1.0  0.10059  0.00574  0.03091  1.0000
  C   C10       1.0  0.10662  0.02967  0.99132  1.0000
  C   C11       1.0  0.14807  0.04858  0.98129  1.0000
  C   C12       1.0  0.18364  0.04366  0.01072  1.0000
  Cl  Cl1       1.0  0.23443  0.06705  0.99806  1.0000
  C   C13       1.0  0.17832  0.01998  0.05019  1.0000
  C   C14       1.0  0.13693  0.00111  0.06019  1.0000
  Cl  Cl2       1.0  0.13204  0.97204  0.10975  1.0000
  H   H1        1.0  0.85984  0.86590  0.96167  1.0000
  H   H2        1.0  0.83524  0.92174  0.97209  1.0000
  H   H3        1.0  0.92249  0.88297  0.00968  1.0000
  H   H4        1.0  0.87380  0.97314  0.02508  1.0000
  H   H5        1.0  0.90615  0.94415  0.06463  1.0000
  H   H6        1.0  0.96764  0.00269  0.95323  1.0000
  H   H7        1.0  0.91172  0.98594  0.95018  1.0000
  H   H8        1.0  0.94612  0.06380  0.00743  1.0000
  H   H9        1.0  0.89002  0.04792  0.00209  1.0000
  H   H10       1.0  0.94938  0.08079  0.92573  1.0000
  H   H11       1.0  0.89273  0.06458  0.92031  1.0000
  H   H12       1.0  0.90703  0.11171  0.95292  1.0000
  H   H13       1.0  0.03084  0.97607  0.98272  1.0000
  H   H14       1.0  0.01577  0.02661  0.01209  1.0000
  H   H15       1.0  0.07988  0.03427  0.96741  1.0000
  H   H16       1.0  0.15234  0.06709  0.95041  1.0000
  H   H17       1.0  0.20610  0.01617  0.07311  1.0000
