data_image0
_chemical_formula_structural       C3NC4NC3OCOCNC4NSH20
_chemical_formula_sum              "C16 N4 O2 S1 H20"
_cell_length_a       30
_cell_length_b       30
_cell_length_c       30
_cell_angle_alpha    90
_cell_angle_beta     90
_cell_angle_gamma    90

_space_group_name_H-M_alt    "P 1"
_space_group_IT_number       1

loop_
  _space_group_symop_operation_xyz
  'x, y, z'

loop_
  _atom_site_type_symbol
  _atom_site_label
  _atom_site_symmetry_multiplicity
  _atom_site_fract_x
  _atom_site_fract_y
  _atom_site_fract_z
  _atom_site_occupancy
  C   C1        1.0  0.94617  0.87577  0.99047  1.0000
  C   C2        1.0  0.92321  0.91303  0.98156  1.0000
  C   C3        1.0  0.91359  0.94919  0.01471  1.0000
  N   N1        1.0  0.92953  0.99151  0.99673  1.0000
  C   C4        1.0  0.89798  0.01801  0.97056  1.0000
  C   C5        1.0  0.86610  0.04380  0.99971  1.0000
  C   C6        1.0  0.82150  0.03093  0.00387  1.0000
  C   C7        1.0  0.79379  0.05558  0.03145  1.0000
  N   N2        1.0  0.80727  0.09155  0.05483  1.0000
  C   C8        1.0  0.85039  0.10360  0.05026  1.0000
  C   C9        1.0  0.88063  0.08114  0.02353  1.0000
  C   C10       1.0  0.97205  0.00870  0.00388  1.0000
  O   O1        1.0  0.98348  0.04512  0.98861  1.0000
  C   C11       1.0  0.00479  0.98060  0.03158  1.0000
  O   O2        1.0  0.04864  0.99792  0.03474  1.0000
  C   C12       1.0  0.07611  0.99214  0.00019  1.0000
  N   N3        1.0  0.11857  0.00213  0.00432  1.0000
  C   C13       1.0  0.14006  0.99296  0.96428  1.0000
  C   C14       1.0  0.18906  0.00177  0.95953  1.0000
  C   C15       1.0  0.21620  0.97357  0.99219  1.0000
  C   C16       1.0  0.19964  0.05128  0.96556  1.0000
  N   N4        1.0  0.11683  0.97599  0.93029  1.0000
  S   S1        1.0  0.06424  0.97186  0.94785  1.0000
  H   H1        1.0  0.95988  0.86893  0.02326  1.0000
  H   H2        1.0  0.95159  0.85084  0.96474  1.0000
  H   H3        1.0  0.90993  0.91745  0.94809  1.0000
  H   H4        1.0  0.87766  0.95115  0.02075  1.0000
  H   H5        1.0  0.92948  0.94240  0.04681  1.0000
  H   H6        1.0  0.87978  0.99556  0.94818  1.0000
  H   H7        1.0  0.91568  0.04149  0.94885  1.0000
  H   H8        1.0  0.80831  0.00234  0.98610  1.0000
  H   H9        1.0  0.75892  0.04673  0.03559  1.0000
  H   H10       1.0  0.86041  0.13277  0.06923  1.0000
  H   H11       1.0  0.91487  0.09271  0.02130  1.0000
  H   H12       1.0  0.99179  0.98016  0.06572  1.0000
  H   H13       1.0  0.00571  0.94607  0.01993  1.0000
  H   H14       1.0  0.19940  0.99239  0.92568  1.0000
  H   H15       1.0  0.25199  0.97884  0.98723  1.0000
  H   H16       1.0  0.20831  0.98186  0.02688  1.0000
  H   H17       1.0  0.20935  0.93800  0.98749  1.0000
  H   H18       1.0  0.18087  0.07161  0.94172  1.0000
  H   H19       1.0  0.23518  0.05768  0.96021  1.0000
  H   H20       1.0  0.19105  0.06286  0.99913  1.0000
