data_image0
_chemical_formula_structural       C5OC8SO2C5ONH27
_chemical_formula_sum              "C18 O4 S1 N1 H27"
_cell_length_a       30
_cell_length_b       30
_cell_length_c       30
_cell_angle_alpha    90
_cell_angle_beta     90
_cell_angle_gamma    90

_space_group_name_H-M_alt    "P 1"
_space_group_IT_number       1

loop_
  _space_group_symop_operation_xyz
  'x, y, z'

loop_
  _atom_site_type_symbol
  _atom_site_label
  _atom_site_symmetry_multiplicity
  _atom_site_fract_x
  _atom_site_fract_y
  _atom_site_fract_z
  _atom_site_occupancy
  C   C1        1.0  0.69864  0.02889  0.04221  1.0000
  C   C2        1.0  0.73587  0.03548  0.01849  1.0000
  C   C3        1.0  0.74625  0.01243  0.97509  1.0000
  C   C4        1.0  0.78926  0.98453  0.97783  1.0000
  C   C5        1.0  0.79472  0.95670  0.93550  1.0000
  O   O1        1.0  0.82633  0.01479  0.98144  1.0000
  C   C6        1.0  0.86355  0.99672  0.00069  1.0000
  C   C7        1.0  0.90390  0.01456  0.99437  1.0000
  C   C8        1.0  0.94404  0.99688  0.01438  1.0000
  C   C9        1.0  0.98439  0.01510  0.00766  1.0000
  C   C10       1.0  0.02601  0.99968  0.02607  1.0000
  C   C11       1.0  0.06667  0.01809  0.02234  1.0000
  C   C12       1.0  0.07939  0.06045  0.99970  1.0000
  C   C13       1.0  0.10132  0.99001  0.04694  1.0000
  S   S1        1.0  0.14120  0.96541  0.01022  1.0000
  O   O2        1.0  0.16120  0.92694  0.03164  1.0000
  O   O3        1.0  0.12211  0.96150  0.96590  1.0000
  C   C14       1.0  0.18407  0.00684  0.00775  1.0000
  C   C15       1.0  0.21858  0.99874  0.97083  1.0000
  C   C16       1.0  0.24807  0.95819  0.97999  1.0000
  C   C17       1.0  0.24789  0.04020  0.96560  1.0000
  C   C18       1.0  0.07170  0.95409  0.06614  1.0000
  O   O4        1.0  0.08187  0.92425  0.09179  1.0000
  N   N1        1.0  0.02890  0.96218  0.05132  1.0000
  H   H1        1.0  0.69310  0.04676  0.07320  1.0000
  H   H2        1.0  0.67291  0.00585  0.03141  1.0000
  H   H3        1.0  0.76060  0.05913  0.03060  1.0000
  H   H4        1.0  0.71825  0.99102  0.96537  1.0000
  H   H5        1.0  0.74976  0.03821  0.94938  1.0000
  H   H6        1.0  0.78728  0.96252  0.00703  1.0000
  H   H7        1.0  0.76640  0.93422  0.93072  1.0000
  H   H8        1.0  0.82513  0.93657  0.93703  1.0000
  H   H9        1.0  0.79778  0.97815  0.90610  1.0000
  H   H10       1.0  0.85768  0.96790  0.02154  1.0000
  H   H11       1.0  0.90677  0.04379  0.97311  1.0000
  H   H12       1.0  0.93996  0.96775  0.03548  1.0000
  H   H13       1.0  0.98655  0.04422  0.98614  1.0000
  H   H14       1.0  0.10003  0.08080  0.02186  1.0000
  H   H15       1.0  0.05052  0.08074  0.99060  1.0000
  H   H16       1.0  0.09813  0.05368  0.96917  1.0000
  H   H17       1.0  0.11780  0.00815  0.07386  1.0000
  H   H18       1.0  0.19984  0.00811  0.04065  1.0000
  H   H19       1.0  0.16756  0.03876  0.00192  1.0000
  H   H20       1.0  0.20131  0.99329  0.93907  1.0000
  H   H21       1.0  0.22891  0.92721  0.97856  1.0000
  H   H22       1.0  0.27451  0.95548  0.95495  1.0000
  H   H23       1.0  0.26388  0.96040  0.01282  1.0000
  H   H24       1.0  0.22766  0.06947  0.95740  1.0000
  H   H25       1.0  0.27215  0.03567  0.93869  1.0000
  H   H26       1.0  0.26628  0.04739  0.99632  1.0000
  H   H27       1.0  0.00332  0.94212  0.05995  1.0000
