data_image0
_chemical_formula_structural       C3NC2NCNC3NCNCNC2NCOC6OH25
_chemical_formula_sum              "C20 N7 O2 H25"
_cell_length_a       30
_cell_length_b       30
_cell_length_c       30
_cell_angle_alpha    90
_cell_angle_beta     90
_cell_angle_gamma    90

_space_group_name_H-M_alt    "P 1"
_space_group_IT_number       1

loop_
  _space_group_symop_operation_xyz
  'x, y, z'

loop_
  _atom_site_type_symbol
  _atom_site_label
  _atom_site_symmetry_multiplicity
  _atom_site_fract_x
  _atom_site_fract_y
  _atom_site_fract_z
  _atom_site_occupancy
  C   C1        1.0  0.10820  0.90140  0.06300  1.0000
  C   C2        1.0  0.13560  0.90287  0.02772  1.0000
  C   C3        1.0  0.16340  0.94156  0.01177  1.0000
  N   N1        1.0  0.15834  0.98276  0.03678  1.0000
  C   C4        1.0  0.18609  0.99665  0.07035  1.0000
  C   C5        1.0  0.17105  0.03840  0.08149  1.0000
  N   N2        1.0  0.13521  0.05005  0.05575  1.0000
  C   C6        1.0  0.12761  0.01602  0.02925  1.0000
  N   N3        1.0  0.09518  0.01169  0.99837  1.0000
  C   C7        1.0  0.05999  0.04512  0.99566  1.0000
  C   C8        1.0  0.02554  0.04127  0.03292  1.0000
  C   C9        1.0  0.00513  0.99497  0.03894  1.0000
  N   N4        1.0  0.98991  0.97472  0.99714  1.0000
  C   C10       1.0  0.94852  0.98983  0.98068  1.0000
  N   N5        1.0  0.92704  0.02292  0.00235  1.0000
  C   C11       1.0  0.88804  0.03898  0.98689  1.0000
  N   N6        1.0  0.86669  0.07327  0.01082  1.0000
  C   C12       1.0  0.82572  0.09446  0.99722  1.0000
  C   C13       1.0  0.81352  0.12422  0.03642  1.0000
  N   N7        1.0  0.85401  0.12744  0.06138  1.0000
  C   C14       1.0  0.88366  0.09366  0.04934  1.0000
  O   O1        1.0  0.91693  0.08584  0.07130  1.0000
  C   C15       1.0  0.86912  0.02203  0.94809  1.0000
  C   C16       1.0  0.89075  0.98783  0.92530  1.0000
  C   C17       1.0  0.93094  0.97131  0.94157  1.0000
  C   C18       1.0  0.95269  0.93604  0.91772  1.0000
  C   C19       1.0  0.97048  0.90642  0.89746  1.0000
  C   C20       1.0  0.99209  0.87045  0.87279  1.0000
  O   O2        1.0  0.98485  0.87665  0.82633  1.0000
  H   H1        1.0  0.10319  0.92980  0.08490  1.0000
  H   H2        1.0  0.08990  0.87121  0.07100  1.0000
  H   H3        1.0  0.13881  0.87284  0.00761  1.0000
  H   H4        1.0  0.15569  0.94880  0.97681  1.0000
  H   H5        1.0  0.19874  0.93230  0.01315  1.0000
  H   H6        1.0  0.21329  0.97656  0.08275  1.0000
  H   H7        1.0  0.18414  0.06081  0.10653  1.0000
  H   H8        1.0  0.08441  0.98091  0.98933  1.0000
  H   H9        1.0  0.07436  0.07874  0.99564  1.0000
  H   H10       1.0  0.04347  0.04143  0.96328  1.0000
  H   H11       1.0  0.04067  0.05116  0.06471  1.0000
  H   H12       1.0  0.99926  0.06578  0.02640  1.0000
  H   H13       1.0  0.03068  0.97290  0.05289  1.0000
  H   H14       1.0  0.97847  0.99576  0.06397  1.0000
  H   H15       1.0  0.98821  0.94097  0.99966  1.0000
  H   H16       1.0  0.83208  0.11428  0.96723  1.0000
  H   H17       1.0  0.79943  0.07005  0.99073  1.0000
  H   H18       1.0  0.80203  0.15731  0.02638  1.0000
  H   H19       1.0  0.78833  0.10855  0.05772  1.0000
  H   H20       1.0  0.85748  0.14128  0.09195  1.0000
  H   H21       1.0  0.83801  0.03458  0.93478  1.0000
  H   H22       1.0  0.87629  0.97439  0.89491  1.0000
  H   H23       1.0  0.02813  0.87016  0.87911  1.0000
  H   H24       1.0  0.97824  0.83802  0.88252  1.0000
  H   H25       1.0  0.00039  0.85258  0.81124  1.0000
