data_image0
_chemical_formula_structural       C3NCOC7ClC2NC6OCOC2H25
_chemical_formula_sum              "C22 N2 O3 Cl1 H25"
_cell_length_a       30
_cell_length_b       30
_cell_length_c       30
_cell_angle_alpha    90
_cell_angle_beta     90
_cell_angle_gamma    90

_space_group_name_H-M_alt    "P 1"
_space_group_IT_number       1

loop_
  _space_group_symop_operation_xyz
  'x, y, z'

loop_
  _atom_site_type_symbol
  _atom_site_label
  _atom_site_symmetry_multiplicity
  _atom_site_fract_x
  _atom_site_fract_y
  _atom_site_fract_z
  _atom_site_occupancy
  C   C1        1.0  0.89633  0.14309  0.99940  1.0000
  C   C2        1.0  0.88361  0.10480  0.01857  1.0000
  C   C3        1.0  0.86316  0.06641  0.99428  1.0000
  N   N1        1.0  0.89561  0.03103  0.99349  1.0000
  C   C4        1.0  0.88322  0.98855  0.98125  1.0000
  O   O1        1.0  0.84427  0.97770  0.97481  1.0000
  C   C5        1.0  0.92118  0.95498  0.97754  1.0000
  C   C6        1.0  0.95543  0.97018  0.94297  1.0000
  C   C7        1.0  0.94085  0.94657  0.02415  1.0000
  C   C8        1.0  0.97502  0.90920  0.02523  1.0000
  C   C9        1.0  0.95845  0.86520  0.02596  1.0000
  C   C10       1.0  0.98721  0.82889  0.02416  1.0000
  C   C11       1.0  0.03271  0.83636  0.02097  1.0000
  Cl  Cl1       1.0  0.06868  0.79173  0.01769  1.0000
  C   C12       1.0  0.04966  0.87973  0.02019  1.0000
  C   C13       1.0  0.02160  0.91702  0.02361  1.0000
  N   N2        1.0  0.03756  0.96050  0.02110  1.0000
  C   C14       1.0  0.08456  0.97316  0.01897  1.0000
  C   C15       1.0  0.10590  0.97016  0.06525  1.0000
  C   C16       1.0  0.08608  0.01954  0.99806  1.0000
  C   C17       1.0  0.08932  0.05918  0.02347  1.0000
  C   C18       1.0  0.08937  0.10114  0.00301  1.0000
  C   C19       1.0  0.08584  0.10273  0.95728  1.0000
  O   O2        1.0  0.08508  0.14034  0.93202  1.0000
  C   C20       1.0  0.08111  0.12149  0.88793  1.0000
  O   O3        1.0  0.07862  0.07347  0.88783  1.0000
  C   C21       1.0  0.08222  0.06467  0.93213  1.0000
  C   C22       1.0  0.08210  0.02292  0.95134  1.0000
  H   H1        1.0  0.91066  0.16980  0.01916  1.0000
  H   H2        1.0  0.89274  0.14870  0.96381  1.0000
  H   H3        1.0  0.88758  0.10089  0.05441  1.0000
  H   H4        1.0  0.83283  0.05519  0.01122  1.0000
  H   H5        1.0  0.85458  0.07476  0.95977  1.0000
  H   H6        1.0  0.92787  0.03999  0.98958  1.0000
  H   H7        1.0  0.90622  0.92396  0.96507  1.0000
  H   H8        1.0  0.93889  0.98068  0.91215  1.0000
  H   H9        1.0  0.97835  0.94310  0.93444  1.0000
  H   H10       1.0  0.97531  0.99836  0.95488  1.0000
  H   H11       1.0  0.91373  0.93771  0.04717  1.0000
  H   H12       1.0  0.95438  0.97737  0.03828  1.0000
  H   H13       1.0  0.92268  0.85920  0.02733  1.0000
  H   H14       1.0  0.97393  0.79521  0.02460  1.0000
  H   H15       1.0  0.08548  0.88366  0.01716  1.0000
  H   H16       1.0  0.01942  0.98268  0.03901  1.0000
  H   H17       1.0  0.10313  0.95111  0.99646  1.0000
  H   H18       1.0  0.08689  0.98873  0.09032  1.0000
  H   H19       1.0  0.10744  0.93557  0.07679  1.0000
  H   H20       1.0  0.14003  0.98314  0.06483  1.0000
  H   H21       1.0  0.09164  0.05797  0.05963  1.0000
  H   H22       1.0  0.09196  0.13149  0.02249  1.0000
  H   H23       1.0  0.05090  0.13479  0.87223  1.0000
  H   H24       1.0  0.11010  0.13176  0.86817  1.0000
  H   H25       1.0  0.07850  0.99340  0.93071  1.0000
