data_image0
_chemical_formula_structural       C3NC6SC2ONC5ClCN4H23
_chemical_formula_sum              "C17 N6 S1 O1 Cl1 H23"
_cell_length_a       30
_cell_length_b       30
_cell_length_c       30
_cell_angle_alpha    90
_cell_angle_beta     90
_cell_angle_gamma    90

_space_group_name_H-M_alt    "P 1"
_space_group_IT_number       1

loop_
  _space_group_symop_operation_xyz
  'x, y, z'

loop_
  _atom_site_type_symbol
  _atom_site_label
  _atom_site_symmetry_multiplicity
  _atom_site_fract_x
  _atom_site_fract_y
  _atom_site_fract_z
  _atom_site_occupancy
  C   C1        1.0  0.88901  0.99660  0.91839  1.0000
  C   C2        1.0  0.87369  0.03084  0.94271  1.0000
  C   C3        1.0  0.88108  0.03876  0.99175  1.0000
  N   N1        1.0  0.91911  0.01425  0.01051  1.0000
  C   C4        1.0  0.90626  0.99055  0.05207  1.0000
  C   C5        1.0  0.89016  0.94350  0.04055  1.0000
  C   C6        1.0  0.94261  0.98920  0.08852  1.0000
  C   C7        1.0  0.98974  0.98111  0.07115  1.0000
  C   C8        1.0  0.00040  0.00785  0.02826  1.0000
  C   C9        1.0  0.96096  0.03935  0.01580  1.0000
  S   S1        1.0  0.97431  0.08318  0.97530  1.0000
  C   C10       1.0  0.98832  0.05346  0.92406  1.0000
  C   C11       1.0  0.03518  0.06744  0.91041  1.0000
  O   O1        1.0  0.04120  0.09452  0.87997  1.0000
  N   N2        1.0  0.07183  0.05354  0.93392  1.0000
  C   C12       1.0  0.07881  0.01842  0.96261  1.0000
  C   C13       1.0  0.11699  0.01684  0.98633  1.0000
  C   C14       1.0  0.13214  0.98072  0.01502  1.0000
  C   C15       1.0  0.16798  0.98119  0.04193  1.0000
  C   C16       1.0  0.18174  0.94204  0.06975  1.0000
  Cl  Cl1       1.0  0.20228  0.02729  0.04797  1.0000
  C   C17       1.0  0.04913  0.98182  0.96285  1.0000
  N   N3        1.0  0.04806  0.94669  0.93640  1.0000
  N   N4        1.0  0.01291  0.92118  0.95005  1.0000
  N   N5        1.0  0.99224  0.93992  0.98414  1.0000
  N   N6        1.0  0.01430  0.97821  0.99245  1.0000
  H   H1        1.0  0.88125  0.99385  0.88317  1.0000
  H   H2        1.0  0.90921  0.97035  0.93307  1.0000
  H   H3        1.0  0.85289  0.05552  0.92615  1.0000
  H   H4        1.0  0.84958  0.02873  0.00752  1.0000
  H   H5        1.0  0.88355  0.07458  0.99855  1.0000
  H   H6        1.0  0.87817  0.00789  0.06799  1.0000
  H   H7        1.0  0.91682  0.92290  0.02668  1.0000
  H   H8        1.0  0.87762  0.92663  0.07041  1.0000
  H   H9        1.0  0.86281  0.94435  0.01638  1.0000
  H   H10       1.0  0.94242  0.02126  0.10625  1.0000
  H   H11       1.0  0.93449  0.96412  0.11386  1.0000
  H   H12       1.0  0.01335  0.99099  0.09733  1.0000
  H   H13       1.0  0.99494  0.94519  0.06690  1.0000
  H   H14       1.0  0.02947  0.02860  0.03617  1.0000
  H   H15       1.0  0.95595  0.06090  0.04498  1.0000
  H   H16       1.0  0.98372  0.01760  0.92492  1.0000
  H   H17       1.0  0.96566  0.06572  0.89815  1.0000
  H   H18       1.0  0.09904  0.07178  0.92539  1.0000
  H   H19       1.0  0.13957  0.04518  0.98390  1.0000
  H   H20       1.0  0.11285  0.94995  0.01376  1.0000
  H   H21       1.0  0.15930  0.91359  0.06532  1.0000
  H   H22       1.0  0.18156  0.95079  0.10519  1.0000
  H   H23       1.0  0.21535  0.93106  0.06067  1.0000
