data_image0
_chemical_formula_structural       C3NCON2CSC2NCN2COC2H12
_chemical_formula_sum              "C11 N6 O2 S1 H12"
_cell_length_a       30
_cell_length_b       30
_cell_length_c       30
_cell_angle_alpha    90
_cell_angle_beta     90
_cell_angle_gamma    90

_space_group_name_H-M_alt    "P 1"
_space_group_IT_number       1

loop_
  _space_group_symop_operation_xyz
  'x, y, z'

loop_
  _atom_site_type_symbol
  _atom_site_label
  _atom_site_symmetry_multiplicity
  _atom_site_fract_x
  _atom_site_fract_y
  _atom_site_fract_z
  _atom_site_occupancy
  C   C1        1.0  0.84825  0.05795  0.05821  1.0000
  C   C2        1.0  0.85471  0.05101  0.01457  1.0000
  C   C3        1.0  0.89660  0.06258  0.98977  1.0000
  N   N1        1.0  0.91669  0.02200  0.97321  1.0000
  C   C4        1.0  0.90788  0.00414  0.93217  1.0000
  O   O1        1.0  0.88275  0.01815  0.90348  1.0000
  N   N2        1.0  0.93374  0.96584  0.92934  1.0000
  N   N3        1.0  0.95760  0.95977  0.96767  1.0000
  C   C5        1.0  0.94642  0.99384  0.99219  1.0000
  S   S1        1.0  0.96648  0.00317  0.04530  1.0000
  C   C6        1.0  0.02102  0.98496  0.03470  1.0000
  C   C7        1.0  0.03141  0.93817  0.04966  1.0000
  N   N4        1.0  0.04787  0.01308  0.01592  1.0000
  C   C8        1.0  0.09082  0.00039  0.00872  1.0000
  N   N5        1.0  0.11659  0.98847  0.04114  1.0000
  N   N6        1.0  0.15924  0.97687  0.02951  1.0000
  C   C9        1.0  0.17635  0.97737  0.98705  1.0000
  O   O2        1.0  0.21474  0.96661  0.97821  1.0000
  C   C10       1.0  0.14546  0.99182  0.95149  1.0000
  C   C11       1.0  0.10362  0.00327  0.96147  1.0000
  H   H1        1.0  0.81685  0.04904  0.07390  1.0000
  H   H2        1.0  0.87383  0.07250  0.07931  1.0000
  H   H3        1.0  0.82779  0.03661  0.99493  1.0000
  H   H4        1.0  0.92038  0.08033  0.01100  1.0000
  H   H5        1.0  0.88819  0.08424  0.96161  1.0000
  H   H6        1.0  0.93435  0.94421  0.90348  1.0000
  H   H7        1.0  0.04991  0.93937  0.08105  1.0000
  H   H8        1.0  0.05146  0.92103  0.02450  1.0000
  H   H9        1.0  0.00108  0.91863  0.05496  1.0000
  H   H10       1.0  0.17986  0.96758  0.05465  1.0000
  H   H11       1.0  0.15851  0.99271  0.91789  1.0000
  H   H12       1.0  0.07957  0.01431  0.93706  1.0000
