data_image0
_chemical_formula_structural       C6NCONC2N3C4FC4NC6NC3H24
_chemical_formula_sum              "C26 N7 O1 F1 H24"
_cell_length_a       30
_cell_length_b       30
_cell_length_c       30
_cell_angle_alpha    90
_cell_angle_beta     90
_cell_angle_gamma    90

_space_group_name_H-M_alt    "P 1"
_space_group_IT_number       1

loop_
  _space_group_symop_operation_xyz
  'x, y, z'

loop_
  _atom_site_type_symbol
  _atom_site_label
  _atom_site_symmetry_multiplicity
  _atom_site_fract_x
  _atom_site_fract_y
  _atom_site_fract_z
  _atom_site_occupancy
  C   C1        1.0  0.08549  0.94862  0.96171  1.0000
  C   C2        1.0  0.09790  0.99714  0.96559  1.0000
  C   C3        1.0  0.06769  0.03002  0.97088  1.0000
  C   C4        1.0  0.01692  0.02653  0.97670  1.0000
  C   C5        1.0  0.98230  0.05428  0.98248  1.0000
  C   C6        1.0  0.95305  0.01662  0.98490  1.0000
  N   N1        1.0  0.90490  0.01227  0.99191  1.0000
  C   C7        1.0  0.88280  0.97184  0.99380  1.0000
  O   O1        1.0  0.90121  0.93569  0.98887  1.0000
  N   N2        1.0  0.83760  0.97775  0.00154  1.0000
  C   C8        1.0  0.80824  0.94214  0.00631  1.0000
  C   C9        1.0  0.81518  0.89660  0.00577  1.0000
  N   N3        1.0  0.77732  0.87473  0.01805  1.0000
  N   N4        1.0  0.74628  0.90496  0.02617  1.0000
  N   N5        1.0  0.76272  0.94578  0.01543  1.0000
  C   C10       1.0  0.73396  0.98351  0.01445  1.0000
  C   C11       1.0  0.69383  0.98208  0.03870  1.0000
  C   C12       1.0  0.66495  0.01863  0.03847  1.0000
  C   C13       1.0  0.67574  0.05610  0.01354  1.0000
  F   F1        1.0  0.64802  0.09108  0.01318  1.0000
  C   C14       1.0  0.71473  0.05763  0.98849  1.0000
  C   C15       1.0  0.74390  0.02126  0.98867  1.0000
  C   C16       1.0  0.98795  0.98914  0.97843  1.0000
  C   C17       1.0  0.14318  0.01174  0.96234  1.0000
  N   N6        1.0  0.16295  0.03073  0.92799  1.0000
  C   C18       1.0  0.20621  0.03758  0.94066  1.0000
  C   C19       1.0  0.24133  0.05645  0.91616  1.0000
  C   C20       1.0  0.28333  0.06012  0.93608  1.0000
  C   C21       1.0  0.29019  0.04531  0.97959  1.0000
  C   C22       1.0  0.25548  0.02654  0.00456  1.0000
  C   C23       1.0  0.21354  0.02299  0.98414  1.0000
  N   N7        1.0  0.17251  0.00686  0.99781  1.0000
  C   C24       1.0  0.16175  0.98889  0.04187  1.0000
  C   C25       1.0  0.18669  0.94554  0.05181  1.0000
  C   C26       1.0  0.16747  0.02340  0.07903  1.0000
  H   H1        1.0  0.06140  0.94334  0.93483  1.0000
  H   H2        1.0  0.11481  0.92840  0.95362  1.0000
  H   H3        1.0  0.07195  0.93600  0.99314  1.0000
  H   H4        1.0  0.07960  0.06437  0.97165  1.0000
  H   H5        1.0  0.97801  0.09004  0.98490  1.0000
  H   H6        1.0  0.88774  0.04086  0.99619  1.0000
  H   H7        1.0  0.82686  0.00861  0.00940  1.0000
  H   H8        1.0  0.84559  0.87844  0.99907  1.0000
  H   H9        1.0  0.68477  0.95293  0.05840  1.0000
  H   H10       1.0  0.63412  0.01795  0.05744  1.0000
  H   H11       1.0  0.72168  0.08688  0.96833  1.0000
  H   H12       1.0  0.77252  0.02252  0.96652  1.0000
  H   H13       1.0  0.99143  0.95323  0.97614  1.0000
  H   H14       1.0  0.23564  0.06779  0.88231  1.0000
  H   H15       1.0  0.31076  0.07464  0.91737  1.0000
  H   H16       1.0  0.32313  0.04843  0.99450  1.0000
  H   H17       1.0  0.26156  0.01531  0.03835  1.0000
  H   H18       1.0  0.12625  0.98039  0.04169  1.0000
  H   H19       1.0  0.18198  0.92131  0.02488  1.0000
  H   H20       1.0  0.17426  0.93054  0.08271  1.0000
  H   H21       1.0  0.22257  0.95076  0.05586  1.0000
  H   H22       1.0  0.20239  0.03238  0.08444  1.0000
  H   H23       1.0  0.15454  0.01032  0.11058  1.0000
  H   H24       1.0  0.14914  0.05404  0.07128  1.0000
