data_image0
_chemical_formula_structural       C2OC3NC3NCON2CS2C5SCOC2H24
_chemical_formula_sum              "C18 O3 N4 S3 H24"
_cell_length_a       30
_cell_length_b       30
_cell_length_c       30
_cell_angle_alpha    90
_cell_angle_beta     90
_cell_angle_gamma    90

_space_group_name_H-M_alt    "P 1"
_space_group_IT_number       1

loop_
  _space_group_symop_operation_xyz
  'x, y, z'

loop_
  _atom_site_type_symbol
  _atom_site_label
  _atom_site_symmetry_multiplicity
  _atom_site_fract_x
  _atom_site_fract_y
  _atom_site_fract_z
  _atom_site_occupancy
  C   C1        1.0  0.14020  0.94419  0.92555  1.0000
  C   C2        1.0  0.17286  0.98109  0.93478  1.0000
  O   O1        1.0  0.20161  0.99092  0.90708  1.0000
  C   C3        1.0  0.16822  0.00624  0.97878  1.0000
  C   C4        1.0  0.21200  0.03032  0.98947  1.0000
  C   C5        1.0  0.12994  0.04018  0.97567  1.0000
  N   N1        1.0  0.08534  0.01978  0.97943  1.0000
  C   C6        1.0  0.05048  0.05071  0.96456  1.0000
  C   C7        1.0  0.00651  0.02551  0.95857  1.0000
  C   C8        1.0  0.99845  0.99143  0.99617  1.0000
  N   N2        1.0  0.95082  0.98480  0.00626  1.0000
  C   C9        1.0  0.93207  0.94503  0.98956  1.0000
  O   O2        1.0  0.94668  0.92657  0.95601  1.0000
  N   N3        1.0  0.89628  0.92817  0.01292  1.0000
  N   N4        1.0  0.90843  0.91688  0.05132  1.0000
  C   C10       1.0  0.87190  0.92000  0.08414  1.0000
  S   S1        1.0  0.87983  0.88403  0.13295  1.0000
  S   S2        1.0  0.86369  0.97781  0.10487  1.0000
  C   C11       1.0  0.84934  0.00356  0.05390  1.0000
  C   C12       1.0  0.87760  0.01988  0.02119  1.0000
  C   C13       1.0  0.85250  0.03840  0.98467  1.0000
  C   C14       1.0  0.80713  0.03393  0.98982  1.0000
  C   C15       1.0  0.77094  0.04806  0.95893  1.0000
  S   S3        1.0  0.79442  0.00865  0.03920  1.0000
  C   C16       1.0  0.92638  0.02134  0.02315  1.0000
  O   O3        1.0  0.94431  0.05653  0.03444  1.0000
  C   C17       1.0  0.02688  0.00194  0.03734  1.0000
  C   C18       1.0  0.07650  0.00326  0.02494  1.0000
  H   H1        1.0  0.15319  0.92308  0.89882  1.0000
  H   H2        1.0  0.13583  0.92344  0.95528  1.0000
  H   H3        1.0  0.10817  0.95797  0.91518  1.0000
  H   H4        1.0  0.16279  0.98182  0.00536  1.0000
  H   H5        1.0  0.23957  0.00649  0.99184  1.0000
  H   H6        1.0  0.22066  0.05456  0.96352  1.0000
  H   H7        1.0  0.20966  0.04823  0.02123  1.0000
  H   H8        1.0  0.13271  0.05705  0.94328  1.0000
  H   H9        1.0  0.13364  0.06626  0.00110  1.0000
  H   H10       1.0  0.05911  0.06558  0.93229  1.0000
  H   H11       1.0  0.04651  0.07831  0.98826  1.0000
  H   H12       1.0  0.00680  0.00758  0.92660  1.0000
  H   H13       1.0  0.97941  0.04993  0.95588  1.0000
  H   H14       1.0  0.01144  0.95934  0.98394  1.0000
  H   H15       1.0  0.84044  0.90917  0.06895  1.0000
  H   H16       1.0  0.84366  0.89854  0.15488  1.0000
  H   H17       1.0  0.86760  0.05420  0.95586  1.0000
  H   H18       1.0  0.74891  0.07230  0.97499  1.0000
  H   H19       1.0  0.78477  0.06357  0.92894  1.0000
  H   H20       1.0  0.75108  0.01934  0.94850  1.0000
  H   H21       1.0  0.01774  0.03417  0.05191  1.0000
  H   H22       1.0  0.02137  0.97689  0.06343  1.0000
  H   H23       1.0  0.09002  0.96941  0.02762  1.0000
  H   H24       1.0  0.09361  0.02360  0.05015  1.0000
