data_image0
_chemical_formula_structural       C2ONC3SC3OH13
_chemical_formula_sum              "C8 O2 N1 S1 H13"
_cell_length_a       30
_cell_length_b       30
_cell_length_c       30
_cell_angle_alpha    90
_cell_angle_beta     90
_cell_angle_gamma    90

_space_group_name_H-M_alt    "P 1"
_space_group_IT_number       1

loop_
  _space_group_symop_operation_xyz
  'x, y, z'

loop_
  _atom_site_type_symbol
  _atom_site_label
  _atom_site_symmetry_multiplicity
  _atom_site_fract_x
  _atom_site_fract_y
  _atom_site_fract_z
  _atom_site_occupancy
  C   C1        1.0  0.09630  0.96127  0.99231  1.0000
  C   C2        1.0  0.07083  0.00369  0.00152  1.0000
  O   O1        1.0  0.09092  0.03678  0.01547  1.0000
  N   N1        1.0  0.02478  0.00369  0.99397  1.0000
  C   C3        1.0  0.00411  0.04778  0.99341  1.0000
  C   C4        1.0  0.98498  0.06106  0.03871  1.0000
  C   C5        1.0  0.95275  0.02742  0.05914  1.0000
  S   S1        1.0  0.91377  0.00486  0.01857  1.0000
  C   C6        1.0  0.94921  0.96589  0.98755  1.0000
  C   C7        1.0  0.94171  0.96952  0.93740  1.0000
  C   C8        1.0  0.99891  0.96543  0.99967  1.0000
  O   O2        1.0  0.01476  0.93008  0.01374  1.0000
  H   H1        1.0  0.09778  0.94081  0.02241  1.0000
  H   H2        1.0  0.13034  0.96997  0.98243  1.0000
  H   H3        1.0  0.08155  0.94268  0.96466  1.0000
  H   H4        1.0  0.02867  0.07290  0.98323  1.0000
  H   H5        1.0  0.97846  0.04910  0.96765  1.0000
  H   H6        1.0  0.96799  0.09324  0.03493  1.0000
  H   H7        1.0  0.01219  0.06674  0.06247  1.0000
  H   H8        1.0  0.97054  0.00012  0.07559  1.0000
  H   H9        1.0  0.93336  0.04402  0.08525  1.0000
  H   H10       1.0  0.93661  0.93299  0.99748  1.0000
  H   H11       1.0  0.90692  0.96248  0.92882  1.0000
  H   H12       1.0  0.95011  0.00231  0.92392  1.0000
  H   H13       1.0  0.96245  0.94518  0.91972  1.0000
