data_image0
_chemical_formula_structural       C8NC10NC2ONCNC6NH37
_chemical_formula_sum              "C27 N5 O1 H37"
_cell_length_a       30
_cell_length_b       30
_cell_length_c       30
_cell_angle_alpha    90
_cell_angle_beta     90
_cell_angle_gamma    90

_space_group_name_H-M_alt    "P 1"
_space_group_IT_number       1

loop_
  _space_group_symop_operation_xyz
  'x, y, z'

loop_
  _atom_site_type_symbol
  _atom_site_label
  _atom_site_symmetry_multiplicity
  _atom_site_fract_x
  _atom_site_fract_y
  _atom_site_fract_z
  _atom_site_occupancy
  C   C1        1.0  0.13681  0.94167  0.01489  1.0000
  C   C2        1.0  0.13956  0.99032  0.00154  1.0000
  C   C3        1.0  0.10327  0.01312  0.98742  1.0000
  C   C4        1.0  0.05778  0.99736  0.98424  1.0000
  C   C5        1.0  0.03375  0.98383  0.01951  1.0000
  C   C6        1.0  0.98580  0.96814  0.01986  1.0000
  C   C7        1.0  0.95843  0.98032  0.97800  1.0000
  C   C8        1.0  0.90636  0.97861  0.98453  1.0000
  N   N1        1.0  0.88677  0.02431  0.99386  1.0000
  C   C9        1.0  0.91110  0.05343  0.02483  1.0000
  C   C10       1.0  0.91513  0.10138  0.00779  1.0000
  C   C11       1.0  0.87322  0.12329  0.98915  1.0000
  C   C12       1.0  0.82990  0.10902  0.01140  1.0000
  C   C13       1.0  0.81263  0.06472  0.99333  1.0000
  C   C14       1.0  0.83913  0.02331  0.00698  1.0000
  C   C15       1.0  0.88653  0.96498  0.93768  1.0000
  C   C16       1.0  0.89015  0.91596  0.92290  1.0000
  C   C17       1.0  0.86133  0.88445  0.95088  1.0000
  C   C18       1.0  0.88459  0.86715  0.99285  1.0000
  N   N2        1.0  0.91370  0.90018  0.01334  1.0000
  C   C19       1.0  0.89461  0.94411  0.02144  1.0000
  C   C20       1.0  0.95698  0.88841  0.02173  1.0000
  O   O1        1.0  0.96990  0.84947  0.02268  1.0000
  N   N3        1.0  0.98806  0.92043  0.02740  1.0000
  C   C21       1.0  0.18035  0.01551  0.00192  1.0000
  N   N4        1.0  0.18862  0.05697  0.98954  1.0000
  C   C22       1.0  0.23311  0.06406  0.99746  1.0000
  C   C23       1.0  0.25909  0.10226  0.99038  1.0000
  C   C24       1.0  0.30442  0.10085  0.00152  1.0000
  C   C25       1.0  0.32342  0.06222  0.01931  1.0000
  C   C26       1.0  0.29797  0.02378  0.02660  1.0000
  C   C27       1.0  0.25291  0.02618  0.01519  1.0000
  N   N5        1.0  0.21877  0.99590  0.01768  1.0000
  H   H1        1.0  0.10505  0.92591  0.00651  1.0000
  H   H2        1.0  0.16260  0.92241  0.99761  1.0000
  H   H3        1.0  0.14199  0.93825  0.05086  1.0000
  H   H4        1.0  0.10708  0.04750  0.97603  1.0000
  H   H5        1.0  0.04336  0.99890  0.95102  1.0000
  H   H6        1.0  0.04951  0.98428  0.05225  1.0000
  H   H7        1.0  0.97095  0.98250  0.04989  1.0000
  H   H8        1.0  0.96853  0.95774  0.95101  1.0000
  H   H9        1.0  0.96743  0.01363  0.96574  1.0000
  H   H10       1.0  0.89619  0.05315  0.05825  1.0000
  H   H11       1.0  0.94533  0.04291  0.03049  1.0000
  H   H12       1.0  0.92751  0.12186  0.03549  1.0000
  H   H13       1.0  0.94110  0.10286  0.98204  1.0000
  H   H14       1.0  0.87699  0.15951  0.99258  1.0000
  H   H15       1.0  0.87124  0.11695  0.95317  1.0000
  H   H16       1.0  0.80463  0.13446  0.00417  1.0000
  H   H17       1.0  0.83342  0.10791  0.04775  1.0000
  H   H18       1.0  0.77827  0.06031  0.00511  1.0000
  H   H19       1.0  0.81064  0.06630  0.95683  1.0000
  H   H20       1.0  0.83564  0.01779  0.04301  1.0000
  H   H21       1.0  0.82158  0.99524  0.99161  1.0000
  H   H22       1.0  0.85113  0.97360  0.93517  1.0000
  H   H23       1.0  0.90269  0.98558  0.91201  1.0000
  H   H24       1.0  0.87794  0.91435  0.88843  1.0000
  H   H25       1.0  0.92483  0.90467  0.92177  1.0000
  H   H26       1.0  0.83008  0.90111  0.95999  1.0000
  H   H27       1.0  0.85166  0.85558  0.93062  1.0000
  H   H28       1.0  0.90353  0.83719  0.98402  1.0000
  H   H29       1.0  0.85976  0.85702  0.01767  1.0000
  H   H30       1.0  0.85852  0.93987  0.02507  1.0000
  H   H31       1.0  0.90609  0.95556  0.05418  1.0000
  H   H32       1.0  0.01857  0.90668  0.03162  1.0000
  H   H33       1.0  0.24407  0.13209  0.97658  1.0000
  H   H34       1.0  0.32497  0.13023  0.99621  1.0000
  H   H35       1.0  0.35871  0.06201  0.02768  1.0000
  H   H36       1.0  0.31275  0.99383  0.04041  1.0000
  H   H37       1.0  0.22152  0.96452  0.02936  1.0000
