data_image0
_chemical_formula_structural       C2ONCN2C4OC7H19
_chemical_formula_sum              "C14 O2 N3 H19"
_cell_length_a       30
_cell_length_b       30
_cell_length_c       30
_cell_angle_alpha    90
_cell_angle_beta     90
_cell_angle_gamma    90

_space_group_name_H-M_alt    "P 1"
_space_group_IT_number       1

loop_
  _space_group_symop_operation_xyz
  'x, y, z'

loop_
  _atom_site_type_symbol
  _atom_site_label
  _atom_site_symmetry_multiplicity
  _atom_site_fract_x
  _atom_site_fract_y
  _atom_site_fract_z
  _atom_site_occupancy
  C   C1        1.0  0.14189  0.97060  0.93602  1.0000
  C   C2        1.0  0.09977  0.99110  0.95418  1.0000
  O   O1        1.0  0.07556  0.01398  0.93056  1.0000
  N   N1        1.0  0.09331  0.98145  0.99893  1.0000
  C   C3        1.0  0.06158  0.99636  0.02815  1.0000
  N   N2        1.0  0.07370  0.99034  0.06894  1.0000
  N   N3        1.0  0.02192  0.01537  0.01603  1.0000
  C   C4        1.0  0.00656  0.05626  0.03750  1.0000
  C   C5        1.0  0.00676  0.09502  0.00463  1.0000
  C   C6        1.0  0.96434  0.09836  0.97678  1.0000
  C   C7        1.0  0.94220  0.05394  0.96659  1.0000
  O   O2        1.0  0.97372  0.02230  0.95136  1.0000
  C   C8        1.0  0.99229  0.99291  0.98419  1.0000
  C   C9        1.0  0.95685  0.96272  0.00545  1.0000
  C   C10       1.0  0.92391  0.94361  0.97792  1.0000
  C   C11       1.0  0.89134  0.91527  0.99530  1.0000
  C   C12       1.0  0.89133  0.90503  0.04053  1.0000
  C   C13       1.0  0.92397  0.92292  0.06825  1.0000
  C   C14       1.0  0.95655  0.95133  0.05084  1.0000
  H   H1        1.0  0.15113  0.94058  0.95454  1.0000
  H   H2        1.0  0.13659  0.96116  0.90120  1.0000
  H   H3        1.0  0.16893  0.99493  0.93811  1.0000
  H   H4        1.0  0.11924  0.96816  0.01580  1.0000
  H   H5        1.0  0.04878  0.00135  0.08938  1.0000
  H   H6        1.0  0.97387  0.05170  0.05313  1.0000
  H   H7        1.0  0.02926  0.06532  0.06471  1.0000
  H   H8        1.0  0.03574  0.09246  0.98246  1.0000
  H   H9        1.0  0.01069  0.12644  0.02293  1.0000
  H   H10       1.0  0.94008  0.11983  0.99373  1.0000
  H   H11       1.0  0.97280  0.11521  0.94545  1.0000
  H   H12       1.0  0.92306  0.04195  0.99527  1.0000
  H   H13       1.0  0.91802  0.05900  0.93969  1.0000
  H   H14       1.0  0.01231  0.96940  0.96467  1.0000
  H   H15       1.0  0.92361  0.95100  0.94236  1.0000
  H   H16       1.0  0.86616  0.90109  0.97344  1.0000
  H   H17       1.0  0.86610  0.88287  0.05413  1.0000
  H   H18       1.0  0.92430  0.91456  0.10351  1.0000
  H   H19       1.0  0.98182  0.96411  0.07336  1.0000
