data_image0
_chemical_formula_structural       C2OSCN2C5N2C4OC6FC4H27
_chemical_formula_sum              "C22 O2 S1 N4 F1 H27"
_cell_length_a       30
_cell_length_b       30
_cell_length_c       30
_cell_angle_alpha    90
_cell_angle_beta     90
_cell_angle_gamma    90

_space_group_name_H-M_alt    "P 1"
_space_group_IT_number       1

loop_
  _space_group_symop_operation_xyz
  'x, y, z'

loop_
  _atom_site_type_symbol
  _atom_site_label
  _atom_site_symmetry_multiplicity
  _atom_site_fract_x
  _atom_site_fract_y
  _atom_site_fract_z
  _atom_site_occupancy
  C   C1        1.0  0.98250  0.11029  0.92736  1.0000
  C   C2        1.0  0.98988  0.07517  0.89227  1.0000
  O   O1        1.0  0.99714  0.08436  0.85311  1.0000
  S   S1        1.0  0.99104  0.01959  0.91053  1.0000
  C   C3        1.0  0.93667  0.01500  0.92912  1.0000
  N   N1        1.0  0.90361  0.04223  0.92053  1.0000
  N   N2        1.0  0.86643  0.02578  0.94128  1.0000
  C   C4        1.0  0.87727  0.98857  0.96238  1.0000
  C   C5        1.0  0.84536  0.95944  0.98859  1.0000
  C   C6        1.0  0.79841  0.98076  0.98819  1.0000
  C   C7        1.0  0.84148  0.91294  0.96725  1.0000
  C   C8        1.0  0.85997  0.95508  0.03759  1.0000
  N   N3        1.0  0.92235  0.98066  0.95605  1.0000
  N   N4        1.0  0.94679  0.94431  0.97161  1.0000
  C   C9        1.0  0.97948  0.94807  0.00447  1.0000
  C   C10       1.0  0.01079  0.90848  0.00616  1.0000
  C   C11       1.0  0.98201  0.98213  0.03377  1.0000
  C   C12       1.0  0.01619  0.98857  0.06922  1.0000
  O   O2        1.0  0.00302  0.99771  0.10703  1.0000
  C   C13       1.0  0.06520  0.98573  0.05679  1.0000
  C   C14       1.0  0.09454  0.02628  0.06647  1.0000
  C   C15       1.0  0.13921  0.02487  0.04179  1.0000
  C   C16       1.0  0.14502  0.04634  0.00043  1.0000
  C   C17       1.0  0.18558  0.04420  0.97763  1.0000
  C   C18       1.0  0.22079  0.02041  0.99593  1.0000
  F   F1        1.0  0.25967  0.01823  0.97404  1.0000
  C   C19       1.0  0.21616  0.99852  0.03642  1.0000
  C   C20       1.0  0.17552  0.00062  0.05904  1.0000
  C   C21       1.0  0.09477  0.04609  0.11320  1.0000
  C   C22       1.0  0.07393  0.07180  0.07569  1.0000
  H   H1        1.0  0.94766  0.12096  0.92736  1.0000
  H   H2        1.0  0.00375  0.13895  0.91962  1.0000
  H   H3        1.0  0.99175  0.09844  0.96059  1.0000
  H   H4        1.0  0.79889  0.01438  0.00236  1.0000
  H   H5        1.0  0.78523  0.98331  0.95416  1.0000
  H   H6        1.0  0.77472  0.96096  0.00771  1.0000
  H   H7        1.0  0.83090  0.91519  0.93235  1.0000
  H   H8        1.0  0.81695  0.89232  0.98488  1.0000
  H   H9        1.0  0.87316  0.89472  0.96782  1.0000
  H   H10       1.0  0.89011  0.93454  0.04116  1.0000
  H   H11       1.0  0.86672  0.98779  0.05243  1.0000
  H   H12       1.0  0.83401  0.93878  0.05759  1.0000
  H   H13       1.0  0.95446  0.92273  0.94649  1.0000
  H   H14       1.0  0.02833  0.90537  0.03793  1.0000
  H   H15       1.0  0.99209  0.87737  0.00170  1.0000
  H   H16       1.0  0.03547  0.91087  0.97935  1.0000
  H   H17       1.0  0.95697  0.00827  0.03438  1.0000
  H   H18       1.0  0.06748  0.97893  0.02094  1.0000
  H   H19       1.0  0.07891  0.95654  0.07407  1.0000
  H   H20       1.0  0.11760  0.06508  0.98587  1.0000
  H   H21       1.0  0.18984  0.06100  0.94587  1.0000
  H   H22       1.0  0.24407  0.97990  0.05017  1.0000
  H   H23       1.0  0.17198  0.98318  0.09075  1.0000
  H   H24       1.0  0.07314  0.03190  0.13837  1.0000
  H   H25       1.0  0.12582  0.05878  0.12686  1.0000
  H   H26       1.0  0.09119  0.10165  0.06471  1.0000
  H   H27       1.0  0.03803  0.07586  0.07623  1.0000
