data_image0
_chemical_formula_structural       C2OC4NC3N2C4ONC7OC2H26
_chemical_formula_sum              "C22 O3 N4 H26"
_cell_length_a       30
_cell_length_b       30
_cell_length_c       30
_cell_angle_alpha    90
_cell_angle_beta     90
_cell_angle_gamma    90

_space_group_name_H-M_alt    "P 1"
_space_group_IT_number       1

loop_
  _space_group_symop_operation_xyz
  'x, y, z'

loop_
  _atom_site_type_symbol
  _atom_site_label
  _atom_site_symmetry_multiplicity
  _atom_site_fract_x
  _atom_site_fract_y
  _atom_site_fract_z
  _atom_site_occupancy
  C   C1        1.0  0.14430  0.10854  0.06405  1.0000
  C   C2        1.0  0.10337  0.09855  0.03675  1.0000
  O   O1        1.0  0.07236  0.12521  0.03429  1.0000
  C   C3        1.0  0.10043  0.05512  0.01272  1.0000
  C   C4        1.0  0.13061  0.02061  0.01990  1.0000
  C   C5        1.0  0.12590  0.98069  0.99633  1.0000
  C   C6        1.0  0.09097  0.97380  0.96583  1.0000
  N   N1        1.0  0.09279  0.93373  0.94205  1.0000
  C   C7        1.0  0.07198  0.89777  0.95447  1.0000
  C   C8        1.0  0.08419  0.85519  0.93284  1.0000
  C   C9        1.0  0.07602  0.81945  0.95801  1.0000
  N   N2        1.0  0.05578  0.82147  0.99901  1.0000
  N   N3        1.0  0.03009  0.85661  0.01190  1.0000
  C   C10       1.0  0.03580  0.89370  0.98997  1.0000
  C   C11       1.0  0.00271  0.93101  0.99649  1.0000
  C   C12       1.0  0.97813  0.94192  0.95297  1.0000
  C   C13       1.0  0.93439  0.96507  0.96420  1.0000
  O   O2        1.0  0.89848  0.94580  0.96049  1.0000
  N   N4        1.0  0.93851  0.00794  0.97981  1.0000
  C   C14       1.0  0.90061  0.03385  0.99540  1.0000
  C   C15       1.0  0.91067  0.08374  0.99273  1.0000
  C   C16       1.0  0.87030  0.11201  0.00586  1.0000
  C   C17       1.0  0.83945  0.08917  0.03942  1.0000
  C   C18       1.0  0.86479  0.05718  0.06957  1.0000
  C   C19       1.0  0.88766  0.02006  0.04307  1.0000
  C   C20       1.0  0.00370  0.96841  0.91729  1.0000
  O   O3        1.0  0.02310  0.00884  0.93287  1.0000
  C   C21       1.0  0.06034  0.00848  0.95901  1.0000
  C   C22       1.0  0.06567  0.04884  0.98224  1.0000
  H   H1        1.0  0.14473  0.08778  0.09399  1.0000
  H   H2        1.0  0.17445  0.10339  0.04424  1.0000
  H   H3        1.0  0.14361  0.14357  0.07423  1.0000
  H   H4        1.0  0.15814  0.02372  0.04320  1.0000
  H   H5        1.0  0.15036  0.95432  0.00129  1.0000
  H   H6        1.0  0.10206  0.85485  0.90163  1.0000
  H   H7        1.0  0.08599  0.78619  0.94783  1.0000
  H   H8        1.0  0.04772  0.79136  0.01283  1.0000
  H   H9        1.0  0.01817  0.95961  0.01268  1.0000
  H   H10       1.0  0.97815  0.91916  0.02101  1.0000
  H   H11       1.0  0.96845  0.91033  0.93706  1.0000
  H   H12       1.0  0.96934  0.02163  0.98208  1.0000
  H   H13       1.0  0.87250  0.02649  0.97314  1.0000
  H   H14       1.0  0.92158  0.09298  0.95907  1.0000
  H   H15       1.0  0.93872  0.09170  0.01488  1.0000
  H   H16       1.0  0.85091  0.12048  0.97604  1.0000
  H   H17       1.0  0.88221  0.14373  0.01958  1.0000
  H   H18       1.0  0.81353  0.07067  0.02142  1.0000
  H   H19       1.0  0.82220  0.11444  0.05937  1.0000
  H   H20       1.0  0.88999  0.07589  0.08836  1.0000
  H   H21       1.0  0.84223  0.04248  0.09426  1.0000
  H   H22       1.0  0.91701  0.00887  0.06184  1.0000
  H   H23       1.0  0.86549  0.99101  0.04119  1.0000
  H   H24       1.0  0.97969  0.97863  0.89161  1.0000
  H   H25       1.0  0.02778  0.94824  0.89889  1.0000
  H   H26       1.0  0.04191  0.07572  0.97647  1.0000
