data_image0
_chemical_formula_structural       C3NCSNC3NC3F3C2ClCOC6H15
_chemical_formula_sum              "C19 N3 S1 F3 Cl1 O1 H15"
_cell_length_a       30
_cell_length_b       30
_cell_length_c       30
_cell_angle_alpha    90
_cell_angle_beta     90
_cell_angle_gamma    90

_space_group_name_H-M_alt    "P 1"
_space_group_IT_number       1

loop_
  _space_group_symop_operation_xyz
  'x, y, z'

loop_
  _atom_site_type_symbol
  _atom_site_label
  _atom_site_symmetry_multiplicity
  _atom_site_fract_x
  _atom_site_fract_y
  _atom_site_fract_z
  _atom_site_occupancy
  C   C1        1.0  0.14950  0.04021  0.07161  1.0000
  C   C2        1.0  0.13727  0.03327  0.02346  1.0000
  C   C3        1.0  0.09976  0.04948  0.00492  1.0000
  N   N1        1.0  0.06906  0.07418  0.02802  1.0000
  C   C4        1.0  0.02824  0.07071  0.01557  1.0000
  S   S1        1.0  0.98048  0.09475  0.03496  1.0000
  N   N2        1.0  0.96354  0.06769  0.98844  1.0000
  C   C5        1.0  0.91971  0.04878  0.98160  1.0000
  C   C6        1.0  0.90899  0.00923  0.01223  1.0000
  C   C7        1.0  0.86342  0.98914  0.00444  1.0000
  N   N3        1.0  0.83717  0.00887  0.97316  1.0000
  C   C8        1.0  0.79619  0.99149  0.96571  1.0000
  C   C9        1.0  0.77938  0.95471  0.98800  1.0000
  C   C10       1.0  0.73332  0.93837  0.97805  1.0000
  F   F1        1.0  0.72651  0.89534  0.99070  1.0000
  F   F2        1.0  0.72317  0.94009  0.93387  1.0000
  F   F3        1.0  0.70149  0.96280  0.99916  1.0000
  C   C11       1.0  0.80651  0.93494  0.02034  1.0000
  C   C12       1.0  0.84891  0.95210  0.02871  1.0000
  Cl  Cl1       1.0  0.88123  0.92675  0.06887  1.0000
  C   C13       1.0  0.00272  0.04519  0.98156  1.0000
  O   O1        1.0  0.01372  0.01392  0.95893  1.0000
  C   C14       1.0  0.16899  0.00725  0.99597  1.0000
  C   C15       1.0  0.15407  0.97223  0.96875  1.0000
  C   C16       1.0  0.18406  0.94738  0.94322  1.0000
  C   C17       1.0  0.22941  0.95707  0.94468  1.0000
  C   C18       1.0  0.24478  0.99158  0.97164  1.0000
  C   C19       1.0  0.21478  0.01646  0.99717  1.0000
  H   H1        1.0  0.15974  0.00867  0.08687  1.0000
  H   H2        1.0  0.17688  0.06410  0.07480  1.0000
  H   H3        1.0  0.12162  0.05289  0.09145  1.0000
  H   H4        1.0  0.09391  0.04413  0.96942  1.0000
  H   H5        1.0  0.89531  0.07568  0.98574  1.0000
  H   H6        1.0  0.91837  0.03788  0.94671  1.0000
  H   H7        1.0  0.91097  0.02010  0.04708  1.0000
  H   H8        1.0  0.93421  0.98322  0.00730  1.0000
  H   H9        1.0  0.77678  0.00878  0.94037  1.0000
  H   H10       1.0  0.79457  0.90618  0.03897  1.0000
  H   H11       1.0  0.11886  0.96363  0.96745  1.0000
  H   H12       1.0  0.17194  0.92037  0.92235  1.0000
  H   H13       1.0  0.25275  0.93771  0.92486  1.0000
  H   H14       1.0  0.28014  0.99923  0.97284  1.0000
  H   H15       1.0  0.22761  0.04346  0.01764  1.0000
