data_image0
_chemical_formula_structural       C2ONCNC2SCNC5ClC2SH10
_chemical_formula_sum              "C13 O1 N3 S2 Cl1 H10"
_cell_length_a       30
_cell_length_b       30
_cell_length_c       30
_cell_angle_alpha    90
_cell_angle_beta     90
_cell_angle_gamma    90

_space_group_name_H-M_alt    "P 1"
_space_group_IT_number       1

loop_
  _space_group_symop_operation_xyz
  'x, y, z'

loop_
  _atom_site_type_symbol
  _atom_site_label
  _atom_site_symmetry_multiplicity
  _atom_site_fract_x
  _atom_site_fract_y
  _atom_site_fract_z
  _atom_site_occupancy
  C   C1        1.0  0.81519  0.02773  0.05738  1.0000
  C   C2        1.0  0.85374  0.00193  0.03792  1.0000
  O   O1        1.0  0.85994  0.96302  0.04868  1.0000
  N   N1        1.0  0.87793  0.02680  0.00793  1.0000
  C   C3        1.0  0.91452  0.01039  0.98636  1.0000
  N   N2        1.0  0.93369  0.97145  0.98967  1.0000
  C   C4        1.0  0.97035  0.96940  0.96147  1.0000
  C   C5        1.0  0.99738  0.92752  0.96003  1.0000
  S   S1        1.0  0.03902  0.92564  0.00381  1.0000
  C   C6        1.0  0.07646  0.96402  0.98413  1.0000
  N   N3        1.0  0.08321  0.97543  0.94230  1.0000
  C   C7        1.0  0.11720  0.00725  0.94379  1.0000
  C   C8        1.0  0.13157  0.01577  0.98501  1.0000
  C   C9        1.0  0.16267  0.04198  0.00962  1.0000
  C   C10       1.0  0.15592  0.03034  0.05260  1.0000
  C   C11       1.0  0.12055  0.99670  0.05548  1.0000
  Cl  Cl1       1.0  0.10296  0.97423  0.10406  1.0000
  C   C12       1.0  0.10597  0.98802  0.01447  1.0000
  C   C13       1.0  0.97732  0.00768  0.93663  1.0000
  S   S2        1.0  0.93808  0.04707  0.94980  1.0000
  H   H1        1.0  0.81125  0.01871  0.09248  1.0000
  H   H2        1.0  0.78479  0.01939  0.03910  1.0000
  H   H3        1.0  0.82082  0.06371  0.05558  1.0000
  H   H4        1.0  0.86904  0.05830  0.00037  1.0000
  H   H5        1.0  0.97510  0.89897  0.96486  1.0000
  H   H6        1.0  0.01296  0.92305  0.92732  1.0000
  H   H7        1.0  0.12943  0.02232  0.91337  1.0000
  H   H8        1.0  0.18625  0.06569  0.99658  1.0000
  H   H9        1.0  0.17351  0.04330  0.08120  1.0000
  H   H10       1.0  0.00317  0.01417  0.91237  1.0000
