data_image0
_chemical_formula_structural       C2ONC5NC2OC9H20
_chemical_formula_sum              "C18 O2 N2 H20"
_cell_length_a       30
_cell_length_b       30
_cell_length_c       30
_cell_angle_alpha    90
_cell_angle_beta     90
_cell_angle_gamma    90

_space_group_name_H-M_alt    "P 1"
_space_group_IT_number       1

loop_
  _space_group_symop_operation_xyz
  'x, y, z'

loop_
  _atom_site_type_symbol
  _atom_site_label
  _atom_site_symmetry_multiplicity
  _atom_site_fract_x
  _atom_site_fract_y
  _atom_site_fract_z
  _atom_site_occupancy
  C   C1        1.0  0.21451  0.04201  0.01541  1.0000
  C   C2        1.0  0.17012  0.03193  0.03691  1.0000
  O   O1        1.0  0.16643  0.03439  0.07767  1.0000
  N   N1        1.0  0.13632  0.02045  0.00771  1.0000
  C   C3        1.0  0.14046  0.01683  0.95894  1.0000
  C   C4        1.0  0.09447  0.00452  0.94030  1.0000
  C   C5        1.0  0.06739  0.99949  0.98180  1.0000
  C   C6        1.0  0.02268  0.98749  0.98473  1.0000
  C   C7        1.0  0.00236  0.98424  0.02662  1.0000
  N   N2        1.0  0.95746  0.97461  0.03263  1.0000
  C   C8        1.0  0.93040  0.95178  0.99951  1.0000
  C   C9        1.0  0.94403  0.90278  0.99634  1.0000
  O   O2        1.0  0.88487  0.95163  0.01404  1.0000
  C   C10       1.0  0.85934  0.98796  0.00367  1.0000
  C   C11       1.0  0.81335  0.98073  0.00520  1.0000
  C   C12       1.0  0.78363  0.01520  0.99551  1.0000
  C   C13       1.0  0.79982  0.05731  0.98455  1.0000
  C   C14       1.0  0.84565  0.06490  0.98353  1.0000
  C   C15       1.0  0.87539  0.03034  0.99320  1.0000
  C   C16       1.0  0.02793  0.99557  0.06442  1.0000
  C   C17       1.0  0.07295  0.00770  0.06132  1.0000
  C   C18       1.0  0.09237  0.00934  0.01964  1.0000
  H   H1        1.0  0.22665  0.01293  0.99713  1.0000
  H   H2        1.0  0.23891  0.05014  0.04129  1.0000
  H   H3        1.0  0.21153  0.07073  0.99318  1.0000
  H   H4        1.0  0.16521  0.99113  0.95110  1.0000
  H   H5        1.0  0.15230  0.04857  0.94532  1.0000
  H   H6        1.0  0.08129  0.03125  0.91925  1.0000
  H   H7        1.0  0.09582  0.97343  0.92127  1.0000
  H   H8        1.0  0.00436  0.98106  0.95426  1.0000
  H   H9        1.0  0.94930  0.96489  0.06399  1.0000
  H   H10       1.0  0.93289  0.96685  0.96629  1.0000
  H   H11       1.0  0.94112  0.88625  0.02880  1.0000
  H   H12       1.0  0.92191  0.88493  0.97342  1.0000
  H   H13       1.0  0.97833  0.89882  0.98461  1.0000
  H   H14       1.0  0.80056  0.94797  0.01390  1.0000
  H   H15       1.0  0.74793  0.00918  0.99667  1.0000
  H   H16       1.0  0.77679  0.08427  0.97714  1.0000
  H   H17       1.0  0.85837  0.09788  0.97556  1.0000
  H   H18       1.0  0.91082  0.03773  0.99311  1.0000
  H   H19       1.0  0.01265  0.99503  0.09731  1.0000
  H   H20       1.0  0.09132  0.01576  0.09138  1.0000
