data_image0
_chemical_formula_structural       C2ONCNC6NCOC8OCSH21
_chemical_formula_sum              "C19 O3 N3 S1 H21"
_cell_length_a       30
_cell_length_b       30
_cell_length_c       30
_cell_angle_alpha    90
_cell_angle_beta     90
_cell_angle_gamma    90

_space_group_name_H-M_alt    "P 1"
_space_group_IT_number       1

loop_
  _space_group_symop_operation_xyz
  'x, y, z'

loop_
  _atom_site_type_symbol
  _atom_site_label
  _atom_site_symmetry_multiplicity
  _atom_site_fract_x
  _atom_site_fract_y
  _atom_site_fract_z
  _atom_site_occupancy
  C   C1        1.0  0.24058  0.95651  0.08032  1.0000
  C   C2        1.0  0.19149  0.94551  0.08165  1.0000
  O   O1        1.0  0.17594  0.92541  0.11367  1.0000
  N   N1        1.0  0.16940  0.95964  0.04408  1.0000
  C   C3        1.0  0.12511  0.95421  0.03431  1.0000
  N   N2        1.0  0.10879  0.96871  0.99638  1.0000
  C   C4        1.0  0.06362  0.95918  0.99384  1.0000
  C   C5        1.0  0.03901  0.97225  0.95243  1.0000
  C   C6        1.0  0.99335  0.99331  0.96152  1.0000
  C   C7        1.0  0.96969  0.00536  0.91803  1.0000
  C   C8        1.0  0.92630  0.03083  0.92252  1.0000
  C   C9        1.0  0.91960  0.06576  0.88570  1.0000
  N   N3        1.0  0.92171  0.07676  0.93083  1.0000
  C   C10       1.0  0.95252  0.09840  0.95618  1.0000
  O   O2        1.0  0.98742  0.11457  0.94254  1.0000
  C   C11       1.0  0.93828  0.09896  0.00481  1.0000
  C   C12       1.0  0.89317  0.07621  0.01433  1.0000
  C   C13       1.0  0.89364  0.02569  0.01818  1.0000
  C   C14       1.0  0.89679  0.00783  0.06155  1.0000
  C   C15       1.0  0.89319  0.96209  0.06935  1.0000
  C   C16       1.0  0.88594  0.93302  0.03402  1.0000
  C   C17       1.0  0.88353  0.94972  0.99076  1.0000
  C   C18       1.0  0.88855  0.99548  0.98247  1.0000
  O   O3        1.0  0.88782  0.00618  0.93771  1.0000
  C   C19       1.0  0.04683  0.93709  0.03065  1.0000
  S   S1        1.0  0.08823  0.92889  0.06907  1.0000
  H   H1        1.0  0.25930  0.92620  0.07251  1.0000
  H   H2        1.0  0.25088  0.96924  0.11288  1.0000
  H   H3        1.0  0.24820  0.98192  0.05534  1.0000
  H   H4        1.0  0.18615  0.97537  0.01948  1.0000
  H   H5        1.0  0.05951  0.99589  0.93347  1.0000
  H   H6        1.0  0.03504  0.94250  0.93149  1.0000
  H   H7        1.0  0.97321  0.96958  0.98042  1.0000
  H   H8        1.0  0.99762  0.02281  0.98260  1.0000
  H   H9        1.0  0.96287  0.97468  0.89930  1.0000
  H   H10       1.0  0.99305  0.02454  0.89741  1.0000
  H   H11       1.0  0.94747  0.07747  0.86607  1.0000
  H   H12       1.0  0.88690  0.06920  0.87101  1.0000
  H   H13       1.0  0.96482  0.08387  0.02482  1.0000
  H   H14       1.0  0.93558  0.13419  0.01413  1.0000
  H   H15       1.0  0.86737  0.08610  0.99033  1.0000
  H   H16       1.0  0.88090  0.08967  0.04614  1.0000
  H   H17       1.0  0.90124  0.02984  0.09008  1.0000
  H   H18       1.0  0.89527  0.94930  0.10322  1.0000
  H   H19       1.0  0.88245  0.89745  0.04007  1.0000
  H   H20       1.0  0.87849  0.92687  0.96309  1.0000
  H   H21       1.0  0.01319  0.92578  0.03678  1.0000
