data_image0
_chemical_formula_structural       C2ONC4FC6SC9H22
_chemical_formula_sum              "C21 O1 N1 F1 S1 H22"
_cell_length_a       30
_cell_length_b       30
_cell_length_c       30
_cell_angle_alpha    90
_cell_angle_beta     90
_cell_angle_gamma    90

_space_group_name_H-M_alt    "P 1"
_space_group_IT_number       1

loop_
  _space_group_symop_operation_xyz
  'x, y, z'

loop_
  _atom_site_type_symbol
  _atom_site_label
  _atom_site_symmetry_multiplicity
  _atom_site_fract_x
  _atom_site_fract_y
  _atom_site_fract_z
  _atom_site_occupancy
  C   C1        1.0  0.83273  0.93339  0.99112  1.0000
  C   C2        1.0  0.88200  0.92688  0.98205  1.0000
  O   O1        1.0  0.89370  0.89351  0.96102  1.0000
  N   N1        1.0  0.91128  0.95913  0.99927  1.0000
  C   C3        1.0  0.89695  0.00349  0.00930  1.0000
  C   C4        1.0  0.90824  0.02350  0.05017  1.0000
  C   C5        1.0  0.89400  0.06669  0.06008  1.0000
  C   C6        1.0  0.86853  0.08998  0.02921  1.0000
  F   F1        1.0  0.85494  0.13142  0.03868  1.0000
  C   C7        1.0  0.85703  0.07092  0.98859  1.0000
  C   C8        1.0  0.87118  0.02768  0.97862  1.0000
  C   C9        1.0  0.95807  0.94930  0.00495  1.0000
  C   C10       1.0  0.97260  0.90589  0.01353  1.0000
  C   C11       1.0  0.01788  0.89643  0.01959  1.0000
  C   C12       1.0  0.05030  0.92991  0.01683  1.0000
  S   S1        1.0  0.10637  0.91292  0.02666  1.0000
  C   C13       1.0  0.13700  0.96197  0.00926  1.0000
  C   C14       1.0  0.11471  0.00472  0.02581  1.0000
  C   C15       1.0  0.14539  0.04525  0.01879  1.0000
  C   C16       1.0  0.15038  0.05828  0.96988  1.0000
  C   C17       1.0  0.10520  0.06592  0.94802  1.0000
  C   C18       1.0  0.07415  0.02602  0.95379  1.0000
  C   C19       1.0  0.06916  0.01247  0.00318  1.0000
  C   C20       1.0  0.03695  0.97368  0.00777  1.0000
  C   C21       1.0  0.99096  0.98262  0.00197  1.0000
  H   H1        1.0  0.81721  0.90057  0.99488  1.0000
  H   H2        1.0  0.81700  0.95047  0.96307  1.0000
  H   H3        1.0  0.82677  0.95148  0.02216  1.0000
  H   H4        1.0  0.92762  0.00531  0.07486  1.0000
  H   H5        1.0  0.90249  0.08218  0.09167  1.0000
  H   H6        1.0  0.83737  0.08988  0.96485  1.0000
  H   H7        1.0  0.86292  0.01367  0.94622  1.0000
  H   H8        1.0  0.94915  0.87842  0.01653  1.0000
  H   H9        1.0  0.02751  0.86215  0.02661  1.0000
  H   H10       1.0  0.17066  0.95905  0.02311  1.0000
  H   H11       1.0  0.14035  0.96120  0.97296  1.0000
  H   H12       1.0  0.10949  0.00168  0.06198  1.0000
  H   H13       1.0  0.13161  0.07373  0.03718  1.0000
  H   H14       1.0  0.17838  0.03874  0.03312  1.0000
  H   H15       1.0  0.16859  0.03229  0.95177  1.0000
  H   H16       1.0  0.17042  0.08873  0.96737  1.0000
  H   H17       1.0  0.10977  0.07285  0.91244  1.0000
  H   H18       1.0  0.08954  0.09556  0.96263  1.0000
  H   H19       1.0  0.04157  0.03465  0.93959  1.0000
  H   H20       1.0  0.08656  0.99791  0.93396  1.0000
  H   H21       1.0  0.05392  0.04083  0.02079  1.0000
  H   H22       1.0  0.98138  0.01666  0.99381  1.0000
