data_image0
_chemical_formula_structural       C2ONC5N2C2NSO2C9ClCSH19
_chemical_formula_sum              "C19 O3 N4 S2 Cl1 H19"
_cell_length_a       30
_cell_length_b       30
_cell_length_c       30
_cell_angle_alpha    90
_cell_angle_beta     90
_cell_angle_gamma    90

_space_group_name_H-M_alt    "P 1"
_space_group_IT_number       1

loop_
  _space_group_symop_operation_xyz
  'x, y, z'

loop_
  _atom_site_type_symbol
  _atom_site_label
  _atom_site_symmetry_multiplicity
  _atom_site_fract_x
  _atom_site_fract_y
  _atom_site_fract_z
  _atom_site_occupancy
  C   C1        1.0  0.17992  0.86314  0.01646  1.0000
  C   C2        1.0  0.13355  0.87519  0.00116  1.0000
  O   O1        1.0  0.10744  0.84627  0.98898  1.0000
  N   N1        1.0  0.12603  0.92069  0.00340  1.0000
  C   C3        1.0  0.08806  0.94385  0.99320  1.0000
  C   C4        1.0  0.08597  0.98835  0.99619  1.0000
  C   C5        1.0  0.04338  0.00817  0.98457  1.0000
  C   C6        1.0  0.03040  0.05069  0.99018  1.0000
  C   C7        1.0  0.98406  0.06217  0.97867  1.0000
  N   N2        1.0  0.96906  0.09928  0.96257  1.0000
  N   N3        1.0  0.99766  0.13204  0.94599  1.0000
  C   C8        1.0  0.02414  0.15320  0.97260  1.0000
  C   C9        1.0  0.04732  0.19476  0.95707  1.0000
  N   N4        1.0  0.03540  0.13866  0.01581  1.0000
  S   S1        1.0  0.06224  0.08923  0.01770  1.0000
  O   O2        1.0  0.10364  0.09645  0.99378  1.0000
  O   O3        1.0  0.06412  0.07780  0.06461  1.0000
  C   C10       1.0  0.94849  0.02626  0.98582  1.0000
  C   C11       1.0  0.96650  0.97864  0.99337  1.0000
  C   C12       1.0  0.93151  0.94322  0.97996  1.0000
  C   C13       1.0  0.88848  0.94604  0.00627  1.0000
  C   C14       1.0  0.85097  0.96579  0.98624  1.0000
  C   C15       1.0  0.81071  0.96957  0.00930  1.0000
  C   C16       1.0  0.80720  0.95359  0.05271  1.0000
  C   C17       1.0  0.84395  0.93373  0.07304  1.0000
  C   C18       1.0  0.88434  0.92990  0.05006  1.0000
  Cl  Cl1       1.0  0.92813  0.90452  0.07754  1.0000
  C   C19       1.0  0.01079  0.97330  0.96787  1.0000
  S   S2        1.0  0.03866  0.91966  0.97664  1.0000
  H   H1        1.0  0.20463  0.88438  0.00009  1.0000
  H   H2        1.0  0.18223  0.86703  0.05263  1.0000
  H   H3        1.0  0.18705  0.82846  0.00770  1.0000
  H   H4        1.0  0.15215  0.93935  0.01382  1.0000
  H   H5        1.0  0.11408  0.00833  0.00692  1.0000
  H   H6        1.0  0.08293  0.18795  0.95315  1.0000
  H   H7        1.0  0.03371  0.20589  0.92515  1.0000
  H   H8        1.0  0.04310  0.22120  0.98181  1.0000
  H   H9        1.0  0.05323  0.16041  0.03482  1.0000
  H   H10       1.0  0.92734  0.02675  0.95594  1.0000
  H   H11       1.0  0.92763  0.03653  0.01403  1.0000
  H   H12       1.0  0.97342  0.97550  0.02921  1.0000
  H   H13       1.0  0.92418  0.94638  0.94423  1.0000
  H   H14       1.0  0.94469  0.90937  0.98374  1.0000
  H   H15       1.0  0.85283  0.97850  0.95230  1.0000
  H   H16       1.0  0.78207  0.98497  0.99328  1.0000
  H   H17       1.0  0.77587  0.95647  0.07067  1.0000
  H   H18       1.0  0.84092  0.92116  0.10690  1.0000
  H   H19       1.0  0.00581  0.97719  0.93185  1.0000
