data_image0
_chemical_formula_structural       C4O2C6ONC4SCClC4NC2NOH28
_chemical_formula_sum              "C21 O4 N3 S1 Cl1 H28"
_cell_length_a       30
_cell_length_b       30
_cell_length_c       30
_cell_angle_alpha    90
_cell_angle_beta     90
_cell_angle_gamma    90

_space_group_name_H-M_alt    "P 1"
_space_group_IT_number       1

loop_
  _space_group_symop_operation_xyz
  'x, y, z'

loop_
  _atom_site_type_symbol
  _atom_site_label
  _atom_site_symmetry_multiplicity
  _atom_site_fract_x
  _atom_site_fract_y
  _atom_site_fract_z
  _atom_site_occupancy
  C   C1        1.0  0.06316  0.05816  0.06223  1.0000
  C   C2        1.0  0.03514  0.02394  0.03769  1.0000
  C   C3        1.0  0.05242  0.98439  0.02492  1.0000
  C   C4        1.0  0.09911  0.96864  0.02714  1.0000
  O   O1        1.0  0.10848  0.92897  0.02822  1.0000
  O   O2        1.0  0.12858  0.00276  0.02484  1.0000
  C   C5        1.0  0.17516  0.99065  0.02469  1.0000
  C   C6        1.0  0.19090  0.98317  0.07260  1.0000
  C   C7        1.0  0.20114  0.02753  0.00012  1.0000
  C   C8        1.0  0.19947  0.07371  0.02166  1.0000
  C   C9        1.0  0.24583  0.07985  0.04034  1.0000
  C   C10       1.0  0.27386  0.05346  0.00796  1.0000
  O   O3        1.0  0.24747  0.01544  0.99627  1.0000
  N   N1        1.0  0.99069  0.03634  0.03255  1.0000
  C   C11       1.0  0.95741  0.02286  0.00396  1.0000
  C   C12       1.0  0.95737  0.99534  0.96873  1.0000
  C   C13       1.0  0.91916  0.98693  0.94022  1.0000
  C   C14       1.0  0.87774  0.97197  0.95049  1.0000
  S   S1        1.0  0.86385  0.96054  0.00619  1.0000
  C   C15       1.0  0.84026  0.90809  0.00097  1.0000
  Cl  Cl1       1.0  0.87610  0.86305  0.99516  1.0000
  C   C16       1.0  0.79625  0.90064  0.00545  1.0000
  C   C17       1.0  0.76309  0.93499  0.01224  1.0000
  C   C18       1.0  0.75009  0.96419  0.98092  1.0000
  C   C19       1.0  0.76165  0.96302  0.93225  1.0000
  N   N2        1.0  0.79927  0.98945  0.91723  1.0000
  C   C20       1.0  0.80000  0.03563  0.93150  1.0000
  C   C21       1.0  0.84313  0.96799  0.91241  1.0000
  N   N3        1.0  0.84252  0.92031  0.89540  1.0000
  O   O4        1.0  0.85508  0.91698  0.85623  1.0000
  H   H1        1.0  0.07935  0.08066  0.03845  1.0000
  H   H2        1.0  0.08840  0.04270  0.08358  1.0000
  H   H3        1.0  0.04258  0.07847  0.08461  1.0000
  H   H4        1.0  0.03065  0.95856  0.01208  1.0000
  H   H5        1.0  0.18017  0.95957  0.00598  1.0000
  H   H6        1.0  0.17282  0.95532  0.08791  1.0000
  H   H7        1.0  0.18424  0.01234  0.09356  1.0000
  H   H8        1.0  0.22651  0.97548  0.07390  1.0000
  H   H9        1.0  0.18763  0.03011  0.96624  1.0000
  H   H10       1.0  0.19348  0.09885  0.99576  1.0000
  H   H11       1.0  0.17329  0.07781  0.04669  1.0000
  H   H12       1.0  0.25597  0.11479  0.04287  1.0000
  H   H13       1.0  0.24773  0.06505  0.07365  1.0000
  H   H14       1.0  0.30567  0.04254  0.02214  1.0000
  H   H15       1.0  0.28054  0.07248  0.97750  1.0000
  H   H16       1.0  0.98176  0.06335  0.05113  1.0000
  H   H17       1.0  0.92655  0.04012  0.01230  1.0000
  H   H18       1.0  0.98808  0.97993  0.95734  1.0000
  H   H19       1.0  0.92730  0.99257  0.90514  1.0000
  H   H20       1.0  0.78373  0.86664  0.00533  1.0000
  H   H21       1.0  0.74959  0.93753  0.04583  1.0000
  H   H22       1.0  0.72640  0.98999  0.99057  1.0000
  H   H23       1.0  0.73208  0.97563  0.91469  1.0000
  H   H24       1.0  0.76349  0.92842  0.92066  1.0000
  H   H25       1.0  0.82406  0.05498  0.91194  1.0000
  H   H26       1.0  0.80848  0.03939  0.96680  1.0000
  H   H27       1.0  0.76747  0.05136  0.92613  1.0000
  H   H28       1.0  0.85763  0.98634  0.88402  1.0000
