data_image0
_chemical_formula_structural       C2O2NC7NC5OC2OC4OC2H32
_chemical_formula_sum              "C22 O5 N2 H32"
_cell_length_a       30
_cell_length_b       30
_cell_length_c       30
_cell_angle_alpha    90
_cell_angle_beta     90
_cell_angle_gamma    90

_space_group_name_H-M_alt    "P 1"
_space_group_IT_number       1

loop_
  _space_group_symop_operation_xyz
  'x, y, z'

loop_
  _atom_site_type_symbol
  _atom_site_label
  _atom_site_symmetry_multiplicity
  _atom_site_fract_x
  _atom_site_fract_y
  _atom_site_fract_z
  _atom_site_occupancy
  C   C1        1.0  0.80719  0.01374  0.87175  1.0000
  C   C2        1.0  0.83043  0.03255  0.91191  1.0000
  O   O1        1.0  0.84182  0.07168  0.91479  1.0000
  O   O2        1.0  0.83730  0.99922  0.94256  1.0000
  N   N1        1.0  0.86021  0.01587  0.97974  1.0000
  C   C3        1.0  0.86258  0.98707  0.01213  1.0000
  C   C4        1.0  0.84360  0.94029  0.00946  1.0000
  C   C5        1.0  0.88807  0.00206  0.05488  1.0000
  C   C6        1.0  0.93800  0.00868  0.04248  1.0000
  C   C7        1.0  0.96146  0.96650  0.02555  1.0000
  C   C8        1.0  0.01187  0.97247  0.01962  1.0000
  C   C9        1.0  0.02403  0.00662  0.98365  1.0000
  N   N2        1.0  0.07138  0.00553  0.97195  1.0000
  C   C10       1.0  0.10034  0.02217  0.00751  1.0000
  C   C11       1.0  0.14867  0.02225  0.99291  1.0000
  C   C12       1.0  0.17440  0.06171  0.99549  1.0000
  C   C13       1.0  0.21920  0.06187  0.98259  1.0000
  C   C14       1.0  0.23742  0.02242  0.96752  1.0000
  O   O3        1.0  0.28008  0.01640  0.95335  1.0000
  C   C15       1.0  0.27995  0.96936  0.94299  1.0000
  C   C16       1.0  0.29466  0.96291  0.89493  1.0000
  O   O4        1.0  0.23687  0.94890  0.94907  1.0000
  C   C17       1.0  0.21283  0.98396  0.96508  1.0000
  C   C18       1.0  0.16868  0.98272  0.97758  1.0000
  C   C19       1.0  0.86853  0.04731  0.06996  1.0000
  C   C20       1.0  0.81964  0.04304  0.08376  1.0000
  O   O5        1.0  0.80810  0.99873  0.09684  1.0000
  C   C21       1.0  0.84191  0.97830  0.12294  1.0000
  C   C22       1.0  0.88380  0.96989  0.09502  1.0000
  H   H1        1.0  0.83168  0.00662  0.84581  1.0000
  H   H2        1.0  0.78930  0.98311  0.88036  1.0000
  H   H3        1.0  0.78280  0.03786  0.85957  1.0000
  H   H4        1.0  0.82123  0.93421  0.03763  1.0000
  H   H5        1.0  0.87088  0.91622  0.01038  1.0000
  H   H6        1.0  0.82418  0.93471  0.97941  1.0000
  H   H7        1.0  0.95598  0.02132  0.07174  1.0000
  H   H8        1.0  0.94066  0.03472  0.01690  1.0000
  H   H9        1.0  0.95623  0.93907  0.04902  1.0000
  H   H10       1.0  0.94697  0.95612  0.99370  1.0000
  H   H11       1.0  0.02640  0.98198  0.05185  1.0000
  H   H12       1.0  0.02609  0.93986  0.01085  1.0000
  H   H13       1.0  0.01429  0.04037  0.99364  1.0000
  H   H14       1.0  0.00518  0.99877  0.95333  1.0000
  H   H15       1.0  0.07623  0.02501  0.94454  1.0000
  H   H16       1.0  0.09030  0.05605  0.01691  1.0000
  H   H17       1.0  0.09798  0.00135  0.03744  1.0000
  H   H18       1.0  0.15937  0.09262  0.00739  1.0000
  H   H19       1.0  0.23897  0.09201  0.98428  1.0000
  H   H20       1.0  0.30352  0.95277  0.96539  1.0000
  H   H21       1.0  0.29486  0.92753  0.88579  1.0000
  H   H22       1.0  0.27177  0.98005  0.87210  1.0000
  H   H23       1.0  0.32788  0.97697  0.88966  1.0000
  H   H24       1.0  0.14980  0.95190  0.97519  1.0000
  H   H25       1.0  0.88759  0.05926  0.09874  1.0000
  H   H26       1.0  0.87191  0.07348  0.04476  1.0000
  H   H27       1.0  0.81211  0.06592  0.11112  1.0000
  H   H28       1.0  0.79784  0.05203  0.05591  1.0000
  H   H29       1.0  0.84925  0.99929  0.15200  1.0000
  H   H30       1.0  0.82901  0.94663  0.13572  1.0000
  H   H31       1.0  0.91266  0.97285  0.11735  1.0000
  H   H32       1.0  0.88405  0.93512  0.08422  1.0000
