data_image0
_chemical_formula_structural       C4O2NC4NC3NC5OCOC3H27
_chemical_formula_sum              "C20 O4 N3 H27"
_cell_length_a       30
_cell_length_b       30
_cell_length_c       30
_cell_angle_alpha    90
_cell_angle_beta     90
_cell_angle_gamma    90

_space_group_name_H-M_alt    "P 1"
_space_group_IT_number       1

loop_
  _space_group_symop_operation_xyz
  'x, y, z'

loop_
  _atom_site_type_symbol
  _atom_site_label
  _atom_site_symmetry_multiplicity
  _atom_site_fract_x
  _atom_site_fract_y
  _atom_site_fract_z
  _atom_site_occupancy
  C   C1        1.0  0.17784  0.03967  0.00350  1.0000
  C   C2        1.0  0.15436  0.00441  0.97624  1.0000
  C   C3        1.0  0.17327  0.98634  0.93956  1.0000
  C   C4        1.0  0.21790  0.99433  0.92097  1.0000
  O   O1        1.0  0.22754  0.98867  0.88193  1.0000
  O   O2        1.0  0.24863  0.00597  0.95116  1.0000
  N   N1        1.0  0.11048  0.99258  0.98994  1.0000
  C   C5        1.0  0.07315  0.98541  0.96184  1.0000
  C   C6        1.0  0.07263  0.99242  0.91267  1.0000
  C   C7        1.0  0.03780  0.97418  0.98854  1.0000
  C   C8        1.0  0.98995  0.96273  0.98569  1.0000
  N   N2        1.0  0.97983  0.95647  0.03354  1.0000
  C   C9        1.0  0.93525  0.94589  0.04886  1.0000
  C   C10       1.0  0.91049  0.98463  0.07180  1.0000
  C   C11       1.0  0.90696  0.02711  0.04274  1.0000
  N   N3        1.0  0.87894  0.01980  0.00319  1.0000
  C   C12       1.0  0.86616  0.06136  0.98104  1.0000
  C   C13       1.0  0.82331  0.04887  0.95726  1.0000
  C   C14       1.0  0.79974  0.02013  0.99162  1.0000
  C   C15       1.0  0.83767  0.99513  0.01458  1.0000
  C   C16       1.0  0.83026  0.98898  0.06493  1.0000
  O   O3        1.0  0.86749  0.96799  0.08625  1.0000
  C   C17       1.0  0.01571  0.96406  0.06220  1.0000
  O   O4        1.0  0.01644  0.96261  0.10278  1.0000
  C   C18       1.0  0.05176  0.97511  0.03268  1.0000
  C   C19       1.0  0.09604  0.98603  0.03430  1.0000
  C   C20       1.0  0.12525  0.98778  0.07438  1.0000
  H   H1        1.0  0.19783  0.06185  0.98250  1.0000
  H   H2        1.0  0.15391  0.06169  0.02012  1.0000
  H   H3        1.0  0.19955  0.02467  0.02865  1.0000
  H   H4        1.0  0.15554  0.96161  0.92001  1.0000
  H   H5        1.0  0.27617  0.00844  0.93379  1.0000
  H   H6        1.0  0.03861  0.99907  0.90114  1.0000
  H   H7        1.0  0.08435  0.96262  0.89523  1.0000
  H   H8        1.0  0.09292  0.02108  0.90282  1.0000
  H   H9        1.0  0.98391  0.93147  0.96799  1.0000
  H   H10       1.0  0.96981  0.98990  0.97224  1.0000
  H   H11       1.0  0.93828  0.91854  0.07298  1.0000
  H   H12       1.0  0.91600  0.93239  0.02091  1.0000
  H   H13       1.0  0.92860  0.99347  0.10229  1.0000
  H   H14       1.0  0.89273  0.05373  0.06347  1.0000
  H   H15       1.0  0.94011  0.03849  0.03249  1.0000
  H   H16       1.0  0.89186  0.07268  0.95777  1.0000
  H   H17       1.0  0.85936  0.08818  0.00496  1.0000
  H   H18       1.0  0.83044  0.02939  0.92715  1.0000
  H   H19       1.0  0.80358  0.07801  0.94774  1.0000
  H   H20       1.0  0.78181  0.04156  0.01520  1.0000
  H   H21       1.0  0.77563  0.99757  0.97612  1.0000
  H   H22       1.0  0.84111  0.96201  0.99943  1.0000
  H   H23       1.0  0.82399  0.02089  0.08163  1.0000
  H   H24       1.0  0.80101  0.96795  0.07083  1.0000
  H   H25       1.0  0.15704  0.97093  0.06840  1.0000
  H   H26       1.0  0.10952  0.97086  0.10265  1.0000
  H   H27       1.0  0.13148  0.02226  0.08446  1.0000
