data_image0
_chemical_formula_structural       C2ONC4ONC2NC7NC4ClH17
_chemical_formula_sum              "C19 O2 N4 Cl1 H17"
_cell_length_a       30
_cell_length_b       30
_cell_length_c       30
_cell_angle_alpha    90
_cell_angle_beta     90
_cell_angle_gamma    90

_space_group_name_H-M_alt    "P 1"
_space_group_IT_number       1

loop_
  _space_group_symop_operation_xyz
  'x, y, z'

loop_
  _atom_site_type_symbol
  _atom_site_label
  _atom_site_symmetry_multiplicity
  _atom_site_fract_x
  _atom_site_fract_y
  _atom_site_fract_z
  _atom_site_occupancy
  C   C1        1.0  0.79881  0.05491  0.90354  1.0000
  C   C2        1.0  0.83554  0.03300  0.92993  1.0000
  O   O1        1.0  0.87337  0.02982  0.91474  1.0000
  N   N1        1.0  0.82100  0.01668  0.97045  1.0000
  C   C3        1.0  0.84659  0.99482  0.00357  1.0000
  C   C4        1.0  0.89313  0.99196  0.00175  1.0000
  C   C5        1.0  0.91697  0.96913  0.03491  1.0000
  C   C6        1.0  0.96659  0.96507  0.03378  1.0000
  O   O2        1.0  0.98631  0.96074  0.06934  1.0000
  N   N2        1.0  0.98566  0.96540  0.99180  1.0000
  C   C7        1.0  0.03095  0.96298  0.98336  1.0000
  C   C8        1.0  0.06569  0.96139  0.01310  1.0000
  N   N3        1.0  0.10390  0.95973  0.98831  1.0000
  C   C9        1.0  0.14924  0.95659  0.00535  1.0000
  C   C10       1.0  0.16699  0.00147  0.01941  1.0000
  C   C11       1.0  0.17974  0.03298  0.98728  1.0000
  C   C12       1.0  0.19608  0.07458  0.00016  1.0000
  C   C13       1.0  0.19979  0.08516  0.04523  1.0000
  C   C14       1.0  0.18707  0.05422  0.07746  1.0000
  C   C15       1.0  0.17071  0.01257  0.06468  1.0000
  N   N4        1.0  0.09622  0.95911  0.94390  1.0000
  C   C16       1.0  0.05184  0.96174  0.94115  1.0000
  C   C17       1.0  0.89407  0.95025  0.07096  1.0000
  C   C18       1.0  0.84776  0.95350  0.07359  1.0000
  C   C19       1.0  0.82423  0.97558  0.04007  1.0000
  Cl  Cl1       1.0  0.76677  0.97850  0.04457  1.0000
  H   H1        1.0  0.77360  0.06945  0.92550  1.0000
  H   H2        1.0  0.81293  0.08174  0.88329  1.0000
  H   H3        1.0  0.78320  0.03015  0.88185  1.0000
  H   H4        1.0  0.78773  0.01788  0.97667  1.0000
  H   H5        1.0  0.91130  0.00865  0.97535  1.0000
  H   H6        1.0  0.96588  0.96606  0.96447  1.0000
  H   H7        1.0  0.06672  0.96167  0.04912  1.0000
  H   H8        1.0  0.14870  0.93305  0.03329  1.0000
  H   H9        1.0  0.17033  0.94200  0.97931  1.0000
  H   H10       1.0  0.17663  0.02527  0.95194  1.0000
  H   H11       1.0  0.20573  0.09878  0.97498  1.0000
  H   H12       1.0  0.21241  0.11761  0.05524  1.0000
  H   H13       1.0  0.18977  0.06258  0.11261  1.0000
  H   H14       1.0  0.16075  0.98897  0.09035  1.0000
  H   H15       1.0  0.03657  0.96244  0.90849  1.0000
  H   H16       1.0  0.91236  0.93304  0.09718  1.0000
  H   H17       1.0  0.83038  0.93875  0.10176  1.0000
