data_image0
_chemical_formula_structural       C2ONC5N2COC12H23
_chemical_formula_sum              "C20 O2 N3 H23"
_cell_length_a       30
_cell_length_b       30
_cell_length_c       30
_cell_angle_alpha    90
_cell_angle_beta     90
_cell_angle_gamma    90

_space_group_name_H-M_alt    "P 1"
_space_group_IT_number       1

loop_
  _space_group_symop_operation_xyz
  'x, y, z'

loop_
  _atom_site_type_symbol
  _atom_site_label
  _atom_site_symmetry_multiplicity
  _atom_site_fract_x
  _atom_site_fract_y
  _atom_site_fract_z
  _atom_site_occupancy
  C   C1        1.0  0.97336  0.09336  0.96233  1.0000
  C   C2        1.0  0.93755  0.05788  0.96356  1.0000
  O   O1        1.0  0.90101  0.06635  0.94673  1.0000
  N   N1        1.0  0.94769  0.01671  0.98419  1.0000
  C   C3        1.0  0.98799  0.00961  0.00665  1.0000
  C   C4        1.0  0.00033  0.97386  0.03071  1.0000
  C   C5        1.0  0.04303  0.96810  0.05398  1.0000
  C   C6        1.0  0.05684  0.92865  0.07088  1.0000
  C   C7        1.0  0.03252  0.88499  0.06531  1.0000
  N   N2        1.0  0.09676  0.92416  0.09301  1.0000
  N   N3        1.0  0.11894  0.95635  0.10748  1.0000
  C   C8        1.0  0.10237  0.99900  0.10289  1.0000
  O   O2        1.0  0.11234  0.02940  0.12868  1.0000
  C   C9        1.0  0.07259  0.00824  0.06263  1.0000
  C   C10       1.0  0.09994  0.02440  0.02297  1.0000
  C   C11       1.0  0.10667  0.07040  0.01710  1.0000
  C   C12       1.0  0.13171  0.08643  0.98132  1.0000
  C   C13       1.0  0.15066  0.05676  0.95109  1.0000
  C   C14       1.0  0.14483  0.01106  0.95677  1.0000
  C   C15       1.0  0.11981  0.99491  0.99255  1.0000
  C   C16       1.0  0.91246  0.98220  0.98365  1.0000
  C   C17       1.0  0.89298  0.97101  0.93726  1.0000
  C   C18       1.0  0.84256  0.97619  0.94180  1.0000
  C   C19       1.0  0.83354  0.96957  0.99122  1.0000
  C   C20       1.0  0.87236  0.99341  0.01346  1.0000
  H   H1        1.0  0.00300  0.08103  0.94508  1.0000
  H   H2        1.0  0.98141  0.10452  0.99607  1.0000
  H   H3        1.0  0.96097  0.12219  0.94368  1.0000
  H   H4        1.0  0.01165  0.03671  0.00383  1.0000
  H   H5        1.0  0.97750  0.94616  0.03459  1.0000
  H   H6        1.0  0.00923  0.87998  0.09294  1.0000
  H   H7        1.0  0.05605  0.85704  0.06520  1.0000
  H   H8        1.0  0.01428  0.88299  0.03380  1.0000
  H   H9        1.0  0.05053  0.03546  0.07354  1.0000
  H   H10       1.0  0.09264  0.09424  0.04061  1.0000
  H   H11       1.0  0.13666  0.12210  0.97719  1.0000
  H   H12       1.0  0.17028  0.06922  0.92330  1.0000
  H   H13       1.0  0.15997  0.98788  0.93337  1.0000
  H   H14       1.0  0.11625  0.95901  0.99620  1.0000
  H   H15       1.0  0.92618  0.95055  0.99534  1.0000
  H   H16       1.0  0.90079  0.93618  0.92918  1.0000
  H   H17       1.0  0.90636  0.99106  0.90991  1.0000
  H   H18       1.0  0.83243  0.00979  0.93164  1.0000
  H   H19       1.0  0.82437  0.95231  0.92110  1.0000
  H   H20       1.0  0.83410  0.93398  0.99953  1.0000
  H   H21       1.0  0.80128  0.98318  0.00137  1.0000
  H   H22       1.0  0.86576  0.02930  0.01478  1.0000
  H   H23       1.0  0.87748  0.98214  0.04779  1.0000
