data_image0
_chemical_formula_structural       C2ONC4SO2NC6NOC3H17
_chemical_formula_sum              "C15 O4 N3 S1 H17"
_cell_length_a       30
_cell_length_b       30
_cell_length_c       30
_cell_angle_alpha    90
_cell_angle_beta     90
_cell_angle_gamma    90

_space_group_name_H-M_alt    "P 1"
_space_group_IT_number       1

loop_
  _space_group_symop_operation_xyz
  'x, y, z'

loop_
  _atom_site_type_symbol
  _atom_site_label
  _atom_site_symmetry_multiplicity
  _atom_site_fract_x
  _atom_site_fract_y
  _atom_site_fract_z
  _atom_site_occupancy
  C   C1        1.0  0.12960  0.10747  0.93165  1.0000
  C   C2        1.0  0.10763  0.06295  0.93954  1.0000
  O   O1        1.0  0.10237  0.03636  0.90898  1.0000
  N   N1        1.0  0.09548  0.05728  0.98367  1.0000
  C   C3        1.0  0.07474  0.01982  0.00301  1.0000
  C   C4        1.0  0.06321  0.02289  0.04821  1.0000
  C   C5        1.0  0.04162  0.98767  0.06974  1.0000
  C   C6        1.0  0.03126  0.94912  0.04580  1.0000
  S   S1        1.0  0.00344  0.90448  0.07321  1.0000
  O   O2        1.0  0.00558  0.86544  0.04500  1.0000
  O   O3        1.0  0.01988  0.90360  0.11860  1.0000
  N   N2        1.0  0.94974  0.92215  0.07668  1.0000
  C   C7        1.0  0.92963  0.94333  0.03931  1.0000
  C   C8        1.0  0.92559  0.91956  0.00172  1.0000
  C   C9        1.0  0.90242  0.93799  0.96374  1.0000
  C   C10       1.0  0.89140  0.98130  0.96201  1.0000
  C   C11       1.0  0.90228  0.01358  0.99947  1.0000
  C   C12       1.0  0.94277  0.04176  0.98557  1.0000
  N   N3        1.0  0.95013  0.07952  0.01731  1.0000
  O   O4        1.0  0.94864  0.11618  0.99860  1.0000
  C   C13       1.0  0.90965  0.98903  0.04452  1.0000
  C   C14       1.0  0.04355  0.94509  0.00113  1.0000
  C   C15       1.0  0.06513  0.98054  0.97985  1.0000
  H   H1        1.0  0.16269  0.10763  0.94693  1.0000
  H   H2        1.0  0.10930  0.13428  0.94574  1.0000
  H   H3        1.0  0.13300  0.11325  0.89580  1.0000
  H   H4        1.0  0.10119  0.08339  0.00429  1.0000
  H   H5        1.0  0.07066  0.05283  0.06726  1.0000
  H   H6        1.0  0.03311  0.99057  0.10486  1.0000
  H   H7        1.0  0.94459  0.93665  0.10704  1.0000
  H   H8        1.0  0.93749  0.88549  0.99865  1.0000
  H   H9        1.0  0.89458  0.91561  0.93634  1.0000
  H   H10       1.0  0.87451  0.99438  0.93272  1.0000
  H   H11       1.0  0.87346  0.03576  0.00380  1.0000
  H   H12       1.0  0.93827  0.05563  0.95204  1.0000
  H   H13       1.0  0.97342  0.02210  0.98559  1.0000
  H   H14       1.0  0.93027  0.00910  0.06702  1.0000
  H   H15       1.0  0.87729  0.98510  0.06119  1.0000
  H   H16       1.0  0.03639  0.91481  0.98248  1.0000
  H   H17       1.0  0.07404  0.97632  0.94500  1.0000
