data_image0
_chemical_formula_structural       C2OCSO2C2NC2SC3ONC4S2H20
_chemical_formula_sum              "C14 O4 S4 N2 H20"
_cell_length_a       30
_cell_length_b       30
_cell_length_c       30
_cell_angle_alpha    90
_cell_angle_beta     90
_cell_angle_gamma    90

_space_group_name_H-M_alt    "P 1"
_space_group_IT_number       1

loop_
  _space_group_symop_operation_xyz
  'x, y, z'

loop_
  _atom_site_type_symbol
  _atom_site_label
  _atom_site_symmetry_multiplicity
  _atom_site_fract_x
  _atom_site_fract_y
  _atom_site_fract_z
  _atom_site_occupancy
  C   C1        1.0  0.17491  0.01358  0.08683  1.0000
  C   C2        1.0  0.16733  0.02883  0.03962  1.0000
  O   O1        1.0  0.14677  0.06335  0.03129  1.0000
  C   C3        1.0  0.18500  0.00036  0.00285  1.0000
  S   S1        1.0  0.14248  0.96510  0.98233  1.0000
  O   O2        1.0  0.12709  0.93848  0.01978  1.0000
  O   O3        1.0  0.16093  0.94257  0.94358  1.0000
  C   C4        1.0  0.09646  0.00164  0.96383  1.0000
  C   C5        1.0  0.11234  0.03177  0.92594  1.0000
  N   N1        1.0  0.05718  0.97706  0.94671  1.0000
  C   C6        1.0  0.02513  0.96443  0.97220  1.0000
  C   C7        1.0  0.98776  0.93754  0.95121  1.0000
  S   S2        1.0  0.93580  0.93622  0.98219  1.0000
  C   C8        1.0  0.93156  0.99599  0.00045  1.0000
  C   C9        1.0  0.91994  0.02349  0.95859  1.0000
  C   C10       1.0  0.89266  0.99692  0.03452  1.0000
  O   O4        1.0  0.89846  0.00375  0.07450  1.0000
  N   N2        1.0  0.85076  0.98851  0.01668  1.0000
  C   C11       1.0  0.81183  0.98720  0.04418  1.0000
  C   C12       1.0  0.78623  0.02921  0.05377  1.0000
  C   C13       1.0  0.76645  0.99420  0.02399  1.0000
  C   C14       1.0  0.97533  0.01332  0.02190  1.0000
  S   S3        1.0  0.98280  0.06733  0.03646  1.0000
  S   S4        1.0  0.02049  0.97605  0.02914  1.0000
  H   H1        1.0  0.21069  0.01115  0.09327  1.0000
  H   H2        1.0  0.16054  0.03781  0.10995  1.0000
  H   H3        1.0  0.15902  0.98130  0.09239  1.0000
  H   H4        1.0  0.21222  0.97939  0.01494  1.0000
  H   H5        1.0  0.19789  0.02109  0.97583  1.0000
  H   H6        1.0  0.08749  0.02265  0.99209  1.0000
  H   H7        1.0  0.12313  0.01220  0.89708  1.0000
  H   H8        1.0  0.14023  0.05288  0.93624  1.0000
  H   H9        1.0  0.08531  0.05372  0.91485  1.0000
  H   H10       1.0  0.99950  0.90320  0.94710  1.0000
  H   H11       1.0  0.98094  0.95080  0.91784  1.0000
  H   H12       1.0  0.89363  0.00813  0.93841  1.0000
  H   H13       1.0  0.90759  0.05666  0.96767  1.0000
  H   H14       1.0  0.94905  0.02831  0.93703  1.0000
  H   H15       1.0  0.84955  0.97099  0.98778  1.0000
  H   H16       1.0  0.81437  0.96327  0.07133  1.0000
  H   H17       1.0  0.77250  0.03314  0.08700  1.0000
  H   H18       1.0  0.79780  0.06001  0.03885  1.0000
  H   H19       1.0  0.73892  0.97463  0.03691  1.0000
  H   H20       1.0  0.76393  0.00177  0.98882  1.0000
