data_image0
_chemical_formula_structural       C2ONC6NSO2C4ONC3SO2C2ClC2ClCH21
_chemical_formula_sum              "C20 O6 N3 S2 Cl2 H21"
_cell_length_a       30
_cell_length_b       30
_cell_length_c       30
_cell_angle_alpha    90
_cell_angle_beta     90
_cell_angle_gamma    90

_space_group_name_H-M_alt    "P 1"
_space_group_IT_number       1

loop_
  _space_group_symop_operation_xyz
  'x, y, z'

loop_
  _atom_site_type_symbol
  _atom_site_label
  _atom_site_symmetry_multiplicity
  _atom_site_fract_x
  _atom_site_fract_y
  _atom_site_fract_z
  _atom_site_occupancy
  C   C1        1.0  0.26420  0.07848  0.97659  1.0000
  C   C2        1.0  0.25128  0.03116  0.98722  1.0000
  O   O1        1.0  0.25701  0.01503  0.02438  1.0000
  N   N1        1.0  0.23290  0.00818  0.95211  1.0000
  C   C3        1.0  0.21449  0.96402  0.95788  1.0000
  C   C4        1.0  0.16456  0.96628  0.96295  1.0000
  C   C5        1.0  0.13629  0.95618  0.92725  1.0000
  C   C6        1.0  0.09022  0.95951  0.93234  1.0000
  C   C7        1.0  0.07195  0.97365  0.97280  1.0000
  C   C8        1.0  0.09962  0.98486  0.00837  1.0000
  N   N2        1.0  0.08346  0.99817  0.05098  1.0000
  S   S1        1.0  0.03968  0.03224  0.05754  1.0000
  O   O2        1.0  0.03572  0.06060  0.01871  1.0000
  O   O3        1.0  0.04284  0.05150  0.10161  1.0000
  C   C9        1.0  0.99318  0.99572  0.05841  1.0000
  C   C10       1.0  0.95917  0.00249  0.02695  1.0000
  C   C11       1.0  0.92087  0.97556  0.02693  1.0000
  C   C12       1.0  0.88698  0.98591  0.99237  1.0000
  O   O4        1.0  0.89913  0.99794  0.95529  1.0000
  N   N3        1.0  0.84286  0.98391  0.00497  1.0000
  C   C13       1.0  0.80710  0.99656  0.97452  1.0000
  C   C14       1.0  0.80305  0.04740  0.97018  1.0000
  C   C15       1.0  0.78216  0.06419  0.01332  1.0000
  S   S2        1.0  0.74459  0.02126  0.03030  1.0000
  O   O5        1.0  0.75788  0.00589  0.07415  1.0000
  O   O6        1.0  0.69942  0.03473  0.02017  1.0000
  C   C16       1.0  0.76173  0.98042  0.99073  1.0000
  C   C17       1.0  0.91712  0.94134  0.05840  1.0000
  Cl  Cl1       1.0  0.87262  0.90482  0.06024  1.0000
  C   C18       1.0  0.95110  0.93476  0.08981  1.0000
  C   C19       1.0  0.98910  0.96193  0.09014  1.0000
  Cl  Cl2       1.0  0.02851  0.95048  0.13049  1.0000
  C   C20       1.0  0.14575  0.98011  0.00356  1.0000
  H   H1        1.0  0.29981  0.08283  0.98310  1.0000
  H   H2        1.0  0.24484  0.10106  0.99775  1.0000
  H   H3        1.0  0.25777  0.08691  0.94170  1.0000
  H   H4        1.0  0.22280  0.02551  0.92498  1.0000
  H   H5        1.0  0.22361  0.94444  0.92860  1.0000
  H   H6        1.0  0.22922  0.94752  0.98698  1.0000
  H   H7        1.0  0.14986  0.94558  0.89534  1.0000
  H   H8        1.0  0.06831  0.95128  0.90464  1.0000
  H   H9        1.0  0.03600  0.97576  0.97520  1.0000
  H   H10       1.0  0.10605  0.00164  0.07621  1.0000
  H   H11       1.0  0.96214  0.02904  0.00225  1.0000
  H   H12       1.0  0.83531  0.97440  0.03671  1.0000
  H   H13       1.0  0.81480  0.98175  0.94202  1.0000
  H   H14       1.0  0.78091  0.05528  0.94220  1.0000
  H   H15       1.0  0.83499  0.06389  0.96388  1.0000
  H   H16       1.0  0.76400  0.09540  0.00866  1.0000
  H   H17       1.0  0.80723  0.06820  0.03948  1.0000
  H   H18       1.0  0.73739  0.98054  0.96357  1.0000
  H   H19       1.0  0.76259  0.94766  0.00661  1.0000
  H   H20       1.0  0.94796  0.90806  0.11429  1.0000
  H   H21       1.0  0.16789  0.98797  0.03130  1.0000
