data_image0
_chemical_formula_structural       C2OCSC7NC10H23
_chemical_formula_sum              "C20 O1 S1 N1 H23"
_cell_length_a       30
_cell_length_b       30
_cell_length_c       30
_cell_angle_alpha    90
_cell_angle_beta     90
_cell_angle_gamma    90

_space_group_name_H-M_alt    "P 1"
_space_group_IT_number       1

loop_
  _space_group_symop_operation_xyz
  'x, y, z'

loop_
  _atom_site_type_symbol
  _atom_site_label
  _atom_site_symmetry_multiplicity
  _atom_site_fract_x
  _atom_site_fract_y
  _atom_site_fract_z
  _atom_site_occupancy
  C   C1        1.0  0.05555  0.12980  0.94380  1.0000
  C   C2        1.0  0.01491  0.10084  0.95105  1.0000
  O   O1        1.0  0.97777  0.11700  0.94307  1.0000
  C   C3        1.0  0.02175  0.04994  0.96624  1.0000
  S   S1        1.0  0.02224  0.02290  0.91046  1.0000
  C   C4        1.0  0.06838  0.04507  0.98941  1.0000
  C   C5        1.0  0.08464  0.00016  0.00560  1.0000
  C   C6        1.0  0.07963  0.98746  0.05029  1.0000
  C   C7        1.0  0.09538  0.94627  0.06521  1.0000
  C   C8        1.0  0.11683  0.91749  0.03577  1.0000
  C   C9        1.0  0.12276  0.92997  0.99147  1.0000
  C   C10       1.0  0.10696  0.97111  0.97650  1.0000
  N   N1        1.0  0.98150  0.03800  0.99339  1.0000
  C   C11       1.0  0.97912  0.06602  0.03398  1.0000
  C   C12       1.0  0.97145  0.99148  0.00592  1.0000
  C   C13       1.0  0.98400  0.95055  0.97703  1.0000
  C   C14       1.0  0.95730  0.91144  0.99656  1.0000
  C   C15       1.0  0.91446  0.93495  0.00631  1.0000
  C   C16       1.0  0.87249  0.91616  0.01076  1.0000
  C   C17       1.0  0.83632  0.94454  0.01743  1.0000
  C   C18       1.0  0.84256  0.99080  0.01919  1.0000
  C   C19       1.0  0.88517  0.00932  0.01511  1.0000
  C   C20       1.0  0.92149  0.98119  0.00955  1.0000
  H   H1        1.0  0.07772  0.11464  0.91922  1.0000
  H   H2        1.0  0.04503  0.16226  0.93088  1.0000
  H   H3        1.0  0.07285  0.13541  0.97533  1.0000
  H   H4        1.0  0.97971  0.03329  0.90107  1.0000
  H   H5        1.0  0.07012  0.06827  0.01770  1.0000
  H   H6        1.0  0.09456  0.05745  0.96697  1.0000
  H   H7        1.0  0.06350  0.00947  0.07412  1.0000
  H   H8        1.0  0.09107  0.93672  0.09989  1.0000
  H   H9        1.0  0.12914  0.88547  0.04740  1.0000
  H   H10       1.0  0.13973  0.90769  0.96847  1.0000
  H   H11       1.0  0.11219  0.98017  0.94177  1.0000
  H   H12       1.0  0.00710  0.05995  0.05655  1.0000
  H   H13       1.0  0.97844  0.10165  0.02631  1.0000
  H   H14       1.0  0.94894  0.05992  0.05349  1.0000
  H   H15       1.0  0.98567  0.98515  0.03911  1.0000
  H   H16       1.0  0.01945  0.94283  0.97683  1.0000
  H   H17       1.0  0.97291  0.95485  0.94244  1.0000
  H   H18       1.0  0.95338  0.88459  0.97221  1.0000
  H   H19       1.0  0.97233  0.89870  0.02726  1.0000
  H   H20       1.0  0.86766  0.88040  0.00839  1.0000
  H   H21       1.0  0.80294  0.93080  0.02063  1.0000
  H   H22       1.0  0.81394  0.01261  0.02354  1.0000
  H   H23       1.0  0.88896  0.04526  0.01561  1.0000
