data_image0
_chemical_formula_structural       C2N2C3OCFC6NC3OC7FC2H31
_chemical_formula_sum              "C24 N3 O2 F2 H31"
_cell_length_a       30
_cell_length_b       30
_cell_length_c       30
_cell_angle_alpha    90
_cell_angle_beta     90
_cell_angle_gamma    90

_space_group_name_H-M_alt    "P 1"
_space_group_IT_number       1

loop_
  _space_group_symop_operation_xyz
  'x, y, z'

loop_
  _atom_site_type_symbol
  _atom_site_label
  _atom_site_symmetry_multiplicity
  _atom_site_fract_x
  _atom_site_fract_y
  _atom_site_fract_z
  _atom_site_occupancy
  C   C1        1.0  0.95307  0.95490  0.94148  1.0000
  C   C2        1.0  0.96915  0.98117  0.98198  1.0000
  N   N1        1.0  0.94196  0.00392  0.00753  1.0000
  N   N2        1.0  0.89722  0.00105  0.99869  1.0000
  C   C3        1.0  0.87367  0.04392  0.00578  1.0000
  C   C4        1.0  0.89223  0.08071  0.97544  1.0000
  C   C5        1.0  0.86816  0.12500  0.98212  1.0000
  O   O1        1.0  0.82468  0.12423  0.96320  1.0000
  C   C6        1.0  0.87378  0.96489  0.02396  1.0000
  F   F1        1.0  0.89805  0.92646  0.01968  1.0000
  C   C7        1.0  0.82611  0.95649  0.00909  1.0000
  C   C8        1.0  0.81661  0.94626  0.96438  1.0000
  C   C9        1.0  0.77290  0.93816  0.95072  1.0000
  C   C10       1.0  0.73827  0.93968  0.98162  1.0000
  C   C11       1.0  0.74724  0.94944  0.02625  1.0000
  C   C12       1.0  0.79095  0.95768  0.03997  1.0000
  N   N3        1.0  0.01483  0.98040  0.99160  1.0000
  C   C13       1.0  0.03185  0.00711  0.02882  1.0000
  C   C14       1.0  0.07883  0.02413  0.01890  1.0000
  C   C15       1.0  0.10752  0.99037  0.99360  1.0000
  O   O2        1.0  0.15229  0.99031  0.00994  1.0000
  C   C16       1.0  0.17748  0.02783  0.99513  1.0000
  C   C17       1.0  0.22532  0.02024  0.00763  1.0000
  C   C18       1.0  0.24165  0.03307  0.04950  1.0000
  C   C19       1.0  0.28615  0.02522  0.06085  1.0000
  C   C20       1.0  0.31460  0.00404  0.03069  1.0000
  C   C21       1.0  0.29855  0.99077  0.98916  1.0000
  C   C22       1.0  0.25424  0.99884  0.97801  1.0000
  F   F2        1.0  0.23944  0.98578  0.93788  1.0000
  C   C23       1.0  0.08880  0.94347  0.99872  1.0000
  C   C24       1.0  0.04197  0.94154  0.97910  1.0000
  H   H1        1.0  0.97814  0.95618  0.91496  1.0000
  H   H2        1.0  0.94732  0.92009  0.95081  1.0000
  H   H3        1.0  0.92249  0.96884  0.92744  1.0000
  H   H4        1.0  0.87669  0.05414  0.04079  1.0000
  H   H5        1.0  0.83816  0.04044  0.99846  1.0000
  H   H6        1.0  0.92766  0.08597  0.98262  1.0000
  H   H7        1.0  0.88931  0.07038  0.94046  1.0000
  H   H8        1.0  0.86560  0.13386  0.01746  1.0000
  H   H9        1.0  0.88674  0.15148  0.96522  1.0000
  H   H10       1.0  0.80639  0.10379  0.98041  1.0000
  H   H11       1.0  0.87451  0.97318  0.05951  1.0000
  H   H12       1.0  0.84345  0.94466  0.94002  1.0000
  H   H13       1.0  0.76612  0.93032  0.91591  1.0000
  H   H14       1.0  0.70427  0.93308  0.97115  1.0000
  H   H15       1.0  0.72010  0.95030  0.05036  1.0000
  H   H16       1.0  0.79738  0.96479  0.07495  1.0000
  H   H17       1.0  0.01085  0.03632  0.03540  1.0000
  H   H18       1.0  0.03166  0.98695  0.05938  1.0000
  H   H19       1.0  0.07665  0.05466  0.99888  1.0000
  H   H20       1.0  0.09468  0.03417  0.05030  1.0000
  H   H21       1.0  0.10777  0.99859  0.95791  1.0000
  H   H22       1.0  0.17441  0.03200  0.95894  1.0000
  H   H23       1.0  0.16503  0.05831  0.01101  1.0000
  H   H24       1.0  0.21969  0.04918  0.07350  1.0000
  H   H25       1.0  0.29862  0.03547  0.09332  1.0000
  H   H26       1.0  0.34918  0.99778  0.03967  1.0000
  H   H27       1.0  0.32014  0.97394  0.96539  1.0000
  H   H28       1.0  0.11047  0.91899  0.98235  1.0000
  H   H29       1.0  0.08842  0.93411  0.03414  1.0000
  H   H30       1.0  0.04484  0.94020  0.94269  1.0000
  H   H31       1.0  0.02568  0.91075  0.99007  1.0000
