data_image0
_chemical_formula_structural       C2NC2NCClCNC6FNC3NC3H21
_chemical_formula_sum              "C18 N5 Cl1 F1 H21"
_cell_length_a       30
_cell_length_b       30
_cell_length_c       30
_cell_angle_alpha    90
_cell_angle_beta     90
_cell_angle_gamma    90

_space_group_name_H-M_alt    "P 1"
_space_group_IT_number       1

loop_
  _space_group_symop_operation_xyz
  'x, y, z'

loop_
  _atom_site_type_symbol
  _atom_site_label
  _atom_site_symmetry_multiplicity
  _atom_site_fract_x
  _atom_site_fract_y
  _atom_site_fract_z
  _atom_site_occupancy
  C   C1        1.0  0.98258  0.92943  0.98741  1.0000
  C   C2        1.0  0.00534  0.96975  0.00805  1.0000
  N   N1        1.0  0.98721  0.00920  0.00956  1.0000
  C   C3        1.0  0.94549  0.01514  0.99237  1.0000
  C   C4        1.0  0.93600  0.04619  0.96208  1.0000
  N   N2        1.0  0.96184  0.08058  0.93705  1.0000
  C   C5        1.0  0.92584  0.09295  0.91714  1.0000
  Cl  Cl1       1.0  0.91499  0.13147  0.87939  1.0000
  C   C6        1.0  0.89673  0.06090  0.93853  1.0000
  N   N3        1.0  0.85476  0.05418  0.93302  1.0000
  C   C7        1.0  0.83503  0.02081  0.95920  1.0000
  C   C8        1.0  0.82422  0.97987  0.93980  1.0000
  C   C9        1.0  0.80416  0.94627  0.96512  1.0000
  C   C10       1.0  0.79441  0.95350  0.01004  1.0000
  C   C11       1.0  0.80451  0.99439  0.02965  1.0000
  C   C12       1.0  0.82445  0.02769  0.00419  1.0000
  F   F1        1.0  0.83436  0.06669  0.02371  1.0000
  N   N4        1.0  0.04729  0.96251  0.02542  1.0000
  C   C13       1.0  0.07696  0.99885  0.03868  1.0000
  C   C14       1.0  0.09875  0.02045  0.99774  1.0000
  C   C15       1.0  0.14405  0.99968  0.98760  1.0000
  N   N5        1.0  0.17586  0.00223  0.02478  1.0000
  C   C16       1.0  0.20944  0.03681  0.01770  1.0000
  C   C17       1.0  0.15478  0.00739  0.06868  1.0000
  C   C18       1.0  0.11158  0.98081  0.07176  1.0000
  H   H1        1.0  0.95277  0.92101  0.00663  1.0000
  H   H2        1.0  0.97326  0.93670  0.95292  1.0000
  H   H3        1.0  0.00476  0.90049  0.98743  1.0000
  H   H4        1.0  0.91897  0.99422  0.00538  1.0000
  H   H5        1.0  0.83126  0.97419  0.90471  1.0000
  H   H6        1.0  0.79588  0.91454  0.94966  1.0000
  H   H7        1.0  0.77868  0.92737  0.02964  1.0000
  H   H8        1.0  0.79695  0.00064  0.06448  1.0000
  H   H9        1.0  0.06300  0.93404  0.01621  1.0000
  H   H10       1.0  0.05737  0.02447  0.05596  1.0000
  H   H11       1.0  0.07724  0.01811  0.96829  1.0000
  H   H12       1.0  0.10343  0.05619  0.00416  1.0000
  H   H13       1.0  0.13914  0.96430  0.97970  1.0000
  H   H14       1.0  0.15781  0.01455  0.95715  1.0000
  H   H15       1.0  0.22819  0.03042  0.98701  1.0000
  H   H16       1.0  0.19455  0.07009  0.01541  1.0000
  H   H17       1.0  0.23378  0.03690  0.04493  1.0000
  H   H18       1.0  0.14757  0.04255  0.07591  1.0000
  H   H19       1.0  0.17794  0.99567  0.09440  1.0000
  H   H20       1.0  0.11869  0.94541  0.06569  1.0000
  H   H21       1.0  0.09811  0.98268  0.10570  1.0000
