data_image0
_chemical_formula_structural       C2O2C3NC3NC6FC7H31
_chemical_formula_sum              "C21 O2 N2 F1 H31"
_cell_length_a       30
_cell_length_b       30
_cell_length_c       30
_cell_angle_alpha    90
_cell_angle_beta     90
_cell_angle_gamma    90

_space_group_name_H-M_alt    "P 1"
_space_group_IT_number       1

loop_
  _space_group_symop_operation_xyz
  'x, y, z'

loop_
  _atom_site_type_symbol
  _atom_site_label
  _atom_site_symmetry_multiplicity
  _atom_site_fract_x
  _atom_site_fract_y
  _atom_site_fract_z
  _atom_site_occupancy
  C   C1        1.0  0.28053  0.02986  0.99771  1.0000
  C   C2        1.0  0.23237  0.03930  0.00658  1.0000
  O   O1        1.0  0.21873  0.06242  0.03714  1.0000
  O   O2        1.0  0.20679  0.01839  0.97555  1.0000
  C   C3        1.0  0.15932  0.02424  0.98004  1.0000
  C   C4        1.0  0.13875  0.98840  0.01117  1.0000
  C   C5        1.0  0.15165  0.94117  0.99574  1.0000
  N   N1        1.0  0.09024  0.99522  0.01655  1.0000
  C   C6        1.0  0.06278  0.98660  0.97686  1.0000
  C   C7        1.0  0.03285  0.94570  0.98241  1.0000
  C   C8        1.0  0.99850  0.95278  0.02064  1.0000
  N   N2        1.0  0.98610  0.90747  0.03577  1.0000
  C   C9        1.0  0.95484  0.97644  0.00692  1.0000
  C   C10       1.0  0.92706  0.99576  0.03955  1.0000
  C   C11       1.0  0.88683  0.01673  0.02850  1.0000
  C   C12       1.0  0.87219  0.01851  0.98423  1.0000
  C   C13       1.0  0.82827  0.04071  0.97119  1.0000
  C   C14       1.0  0.83000  0.09059  0.98158  1.0000
  F   F1        1.0  0.82083  0.03777  0.92609  1.0000
  C   C15       1.0  0.79010  0.01529  0.99255  1.0000
  C   C16       1.0  0.76966  0.02703  0.03723  1.0000
  C   C17       1.0  0.74327  0.03392  0.99514  1.0000
  C   C18       1.0  0.89896  0.99861  0.95165  1.0000
  C   C19       1.0  0.93930  0.97778  0.96281  1.0000
  C   C20       1.0  0.02183  0.97872  0.05935  1.0000
  C   C21       1.0  0.07266  0.97514  0.05772  1.0000
  H   H1        1.0  0.28677  0.99411  0.00056  1.0000
  H   H2        1.0  0.30097  0.04724  0.02232  1.0000
  H   H3        1.0  0.28955  0.04189  0.96450  1.0000
  H   H4        1.0  0.15149  0.05802  0.99187  1.0000
  H   H5        1.0  0.14566  0.02168  0.94624  1.0000
  H   H6        1.0  0.15455  0.99320  0.04388  1.0000
  H   H7        1.0  0.13802  0.91540  0.01782  1.0000
  H   H8        1.0  0.13995  0.93418  0.96187  1.0000
  H   H9        1.0  0.18795  0.93703  0.99595  1.0000
  H   H10       1.0  0.04200  0.01618  0.97105  1.0000
  H   H11       1.0  0.08273  0.98272  0.94654  1.0000
  H   H12       1.0  0.01750  0.93717  0.95044  1.0000
  H   H13       1.0  0.05441  0.91690  0.98970  1.0000
  H   H14       1.0  0.96216  0.90981  0.05976  1.0000
  H   H15       1.0  0.01283  0.89230  0.05027  1.0000
  H   H16       1.0  0.93625  0.99457  0.07458  1.0000
  H   H17       1.0  0.86691  0.03119  0.05516  1.0000
  H   H18       1.0  0.79981  0.10747  0.96998  1.0000
  H   H19       1.0  0.83411  0.09761  0.01715  1.0000
  H   H20       1.0  0.85788  0.10629  0.96383  1.0000
  H   H21       1.0  0.79226  0.98013  0.98413  1.0000
  H   H22       1.0  0.76003  0.99970  0.05892  1.0000
  H   H23       1.0  0.78092  0.05636  0.05508  1.0000
  H   H24       1.0  0.73681  0.06783  0.98443  1.0000
  H   H25       1.0  0.71597  0.01120  0.98840  1.0000
  H   H26       1.0  0.88835  0.99866  0.91693  1.0000
  H   H27       1.0  0.95748  0.96216  0.93573  1.0000
  H   H28       1.0  0.01340  0.01440  0.05800  1.0000
  H   H29       1.0  0.00998  0.96702  0.09200  1.0000
  H   H30       1.0  0.08649  0.99307  0.08658  1.0000
  H   H31       1.0  0.08239  0.93996  0.06132  1.0000
