data_image0
_chemical_formula_structural       C2ONC4ONC11H24
_chemical_formula_sum              "C17 O2 N2 H24"
_cell_length_a       30
_cell_length_b       30
_cell_length_c       30
_cell_angle_alpha    90
_cell_angle_beta     90
_cell_angle_gamma    90

_space_group_name_H-M_alt    "P 1"
_space_group_IT_number       1

loop_
  _space_group_symop_operation_xyz
  'x, y, z'

loop_
  _atom_site_type_symbol
  _atom_site_label
  _atom_site_symmetry_multiplicity
  _atom_site_fract_x
  _atom_site_fract_y
  _atom_site_fract_z
  _atom_site_occupancy
  C   C1        1.0  0.21401  0.04863  0.02206  1.0000
  C   C2        1.0  0.16532  0.06070  0.02067  1.0000
  O   O1        1.0  0.15257  0.09951  0.02220  1.0000
  N   N1        1.0  0.13721  0.02449  0.01781  1.0000
  C   C3        1.0  0.08930  0.02996  0.02169  1.0000
  C   C4        1.0  0.06472  0.99257  0.99708  1.0000
  C   C5        1.0  0.01325  0.99788  0.99906  1.0000
  C   C6        1.0  0.99881  0.99562  0.04759  1.0000
  O   O2        1.0  0.01961  0.97560  0.07669  1.0000
  N   N2        1.0  0.96090  0.01784  0.05895  1.0000
  C   C7        1.0  0.92616  0.03217  0.02836  1.0000
  C   C8        1.0  0.93817  0.07438  0.00204  1.0000
  C   C9        1.0  0.90607  0.99291  0.00015  1.0000
  C   C10       1.0  0.88509  0.95926  0.03370  1.0000
  C   C11       1.0  0.86712  0.01315  0.97239  1.0000
  C   C12       1.0  0.93796  0.96558  0.96951  1.0000
  C   C13       1.0  0.91699  0.93493  0.93991  1.0000
  C   C14       1.0  0.94057  0.90668  0.91162  1.0000
  C   C15       1.0  0.98648  0.90756  0.91218  1.0000
  C   C16       1.0  0.00840  0.93674  0.94091  1.0000
  C   C17       1.0  0.98548  0.96626  0.96994  1.0000
  H   H1        1.0  0.21962  0.01428  0.01122  1.0000
  H   H2        1.0  0.22631  0.05255  0.05613  1.0000
  H   H3        1.0  0.23242  0.07075  0.99970  1.0000
  H   H4        1.0  0.14986  0.99446  0.02658  1.0000
  H   H5        1.0  0.07969  0.06244  0.00804  1.0000
  H   H6        1.0  0.08178  0.03028  0.05736  1.0000
  H   H7        1.0  0.07597  0.99381  0.96229  1.0000
  H   H8        1.0  0.07499  0.96009  0.01044  1.0000
  H   H9        1.0  0.00765  0.03144  0.98631  1.0000
  H   H10       1.0  0.95256  0.01324  0.09138  1.0000
  H   H11       1.0  0.89982  0.04339  0.05128  1.0000
  H   H12       1.0  0.90814  0.09415  0.99553  1.0000
  H   H13       1.0  0.96123  0.09562  0.02075  1.0000
  H   H14       1.0  0.95279  0.06716  0.96946  1.0000
  H   H15       1.0  0.91070  0.94210  0.05331  1.0000
  H   H16       1.0  0.86544  0.93345  0.01690  1.0000
  H   H17       1.0  0.86255  0.97613  0.05700  1.0000
  H   H18       1.0  0.84416  0.98787  0.95952  1.0000
  H   H19       1.0  0.87960  0.03212  0.94377  1.0000
  H   H20       1.0  0.84670  0.03559  0.99279  1.0000
  H   H21       1.0  0.88087  0.93187  0.93887  1.0000
  H   H22       1.0  0.92292  0.88388  0.88972  1.0000
  H   H23       1.0  0.00549  0.88555  0.89060  1.0000
  H   H24       1.0  0.04458  0.93535  0.93994  1.0000
