data_image0
_chemical_formula_structural       C2ONC2ONC4NC4ClC2H16
_chemical_formula_sum              "C14 O2 N3 Cl1 H16"
_cell_length_a       30
_cell_length_b       30
_cell_length_c       30
_cell_angle_alpha    90
_cell_angle_beta     90
_cell_angle_gamma    90

_space_group_name_H-M_alt    "P 1"
_space_group_IT_number       1

loop_
  _space_group_symop_operation_xyz
  'x, y, z'

loop_
  _atom_site_type_symbol
  _atom_site_label
  _atom_site_symmetry_multiplicity
  _atom_site_fract_x
  _atom_site_fract_y
  _atom_site_fract_z
  _atom_site_occupancy
  C   C1        1.0  0.19975  0.96832  0.01686  1.0000
  C   C2        1.0  0.15044  0.96061  0.01026  1.0000
  O   O1        1.0  0.13499  0.92308  0.01645  1.0000
  N   N1        1.0  0.12486  0.99785  0.00057  1.0000
  C   C3        1.0  0.14081  0.04280  0.00950  1.0000
  C   C4        1.0  0.08328  0.99103  0.98179  1.0000
  O   O2        1.0  0.07593  0.96404  0.95193  1.0000
  N   N2        1.0  0.05094  0.02016  0.99681  1.0000
  C   C5        1.0  0.00547  0.01695  0.98030  1.0000
  C   C6        1.0  0.98000  0.97724  0.99989  1.0000
  C   C7        1.0  0.93225  0.97662  0.98547  1.0000
  C   C8        1.0  0.91498  0.95311  0.94986  1.0000
  N   N3        1.0  0.87018  0.96124  0.94757  1.0000
  C   C9        1.0  0.85755  0.98990  0.98107  1.0000
  C   C10       1.0  0.81549  0.00730  0.99140  1.0000
  C   C11       1.0  0.81245  0.03607  0.02794  1.0000
  C   C12       1.0  0.85010  0.04673  0.05289  1.0000
  Cl  Cl1       1.0  0.84520  0.08233  0.09770  1.0000
  C   C13       1.0  0.89192  0.02912  0.04226  1.0000
  C   C14       1.0  0.89582  0.00006  0.00552  1.0000
  H   H1        1.0  0.21398  0.98500  0.98775  1.0000
  H   H2        1.0  0.20561  0.98790  0.04701  1.0000
  H   H3        1.0  0.21658  0.93616  0.02050  1.0000
  H   H4        1.0  0.17276  0.04813  0.99277  1.0000
  H   H5        1.0  0.11763  0.06826  0.99756  1.0000
  H   H6        1.0  0.14564  0.04655  0.04545  1.0000
  H   H7        1.0  0.05451  0.03009  0.02876  1.0000
  H   H8        1.0  0.98903  0.04837  0.98904  1.0000
  H   H9        1.0  0.00642  0.01473  0.94382  1.0000
  H   H10       1.0  0.98166  0.97839  0.03642  1.0000
  H   H11       1.0  0.99611  0.94589  0.99015  1.0000
  H   H12       1.0  0.93096  0.93122  0.92602  1.0000
  H   H13       1.0  0.84926  0.94814  0.92465  1.0000
  H   H14       1.0  0.78619  0.99889  0.97192  1.0000
  H   H15       1.0  0.78022  0.05010  0.03677  1.0000
  H   H16       1.0  0.92098  0.03761  0.06203  1.0000
