data_image0
_chemical_formula_structural       C2OC3NC4NCSC6NCNC5H26
_chemical_formula_sum              "C22 O1 N4 S1 H26"
_cell_length_a       30
_cell_length_b       30
_cell_length_c       30
_cell_angle_alpha    90
_cell_angle_beta     90
_cell_angle_gamma    90

_space_group_name_H-M_alt    "P 1"
_space_group_IT_number       1

loop_
  _space_group_symop_operation_xyz
  'x, y, z'

loop_
  _atom_site_type_symbol
  _atom_site_label
  _atom_site_symmetry_multiplicity
  _atom_site_fract_x
  _atom_site_fract_y
  _atom_site_fract_z
  _atom_site_occupancy
  C   C1        1.0  0.00200  0.08132  0.01389  1.0000
  C   C2        1.0  0.99987  0.04177  0.98312  1.0000
  O   O1        1.0  0.00825  0.04423  0.94311  1.0000
  C   C3        1.0  0.98709  0.99840  0.00255  1.0000
  C   C4        1.0  0.01869  0.96382  0.00658  1.0000
  C   C5        1.0  0.06615  0.96997  0.99025  1.0000
  N   N1        1.0  0.09658  0.97622  0.02785  1.0000
  C   C6        1.0  0.14284  0.98268  0.01371  1.0000
  C   C7        1.0  0.15126  0.02828  0.99535  1.0000
  C   C8        1.0  0.16097  0.04158  0.95213  1.0000
  C   C9        1.0  0.16512  0.01277  0.91199  1.0000
  N   N2        1.0  0.16707  0.08708  0.94675  1.0000
  C   C10       1.0  0.16178  0.10750  0.98509  1.0000
  S   S1        1.0  0.15000  0.07424  0.02980  1.0000
  C   C11       1.0  0.00509  0.92364  0.02772  1.0000
  C   C12       1.0  0.03312  0.88622  0.03461  1.0000
  C   C13       1.0  0.01770  0.84776  0.05574  1.0000
  C   C14       1.0  0.97399  0.84591  0.07051  1.0000
  C   C15       1.0  0.94614  0.88259  0.06411  1.0000
  C   C16       1.0  0.96075  0.92123  0.04322  1.0000
  N   N3        1.0  0.93144  0.95468  0.03890  1.0000
  C   C17       1.0  0.94346  0.99284  0.01830  1.0000
  N   N4        1.0  0.91101  0.02637  0.01348  1.0000
  C   C18       1.0  0.89822  0.03522  0.96669  1.0000
  C   C19       1.0  0.84889  0.02578  0.95843  1.0000
  C   C20       1.0  0.81856  0.05180  0.98999  1.0000
  C   C21       1.0  0.83996  0.05968  0.03555  1.0000
  C   C22       1.0  0.87440  0.02366  0.04599  1.0000
  H   H1        1.0  0.97457  0.10405  0.00638  1.0000
  H   H2        1.0  0.03386  0.09832  0.00905  1.0000
  H   H3        1.0  0.99989  0.07107  0.04880  1.0000
  H   H4        1.0  0.06878  0.99782  0.96699  1.0000
  H   H5        1.0  0.07566  0.94053  0.97077  1.0000
  H   H6        1.0  0.08696  0.00317  0.04614  1.0000
  H   H7        1.0  0.16432  0.97758  0.04286  1.0000
  H   H8        1.0  0.15255  0.95672  0.98993  1.0000
  H   H9        1.0  0.18609  0.02892  0.88679  1.0000
  H   H10       1.0  0.13224  0.00663  0.89731  1.0000
  H   H11       1.0  0.18040  0.98069  0.92022  1.0000
  H   H12       1.0  0.16487  0.14334  0.98835  1.0000
  H   H13       1.0  0.06774  0.88677  0.02387  1.0000
  H   H14       1.0  0.03991  0.81956  0.06073  1.0000
  H   H15       1.0  0.96143  0.81622  0.08710  1.0000
  H   H16       1.0  0.91188  0.88102  0.07588  1.0000
  H   H17       1.0  0.91777  0.01559  0.94288  1.0000
  H   H18       1.0  0.90509  0.07042  0.95961  1.0000
  H   H19       1.0  0.84015  0.03361  0.92382  1.0000
  H   H20       1.0  0.84276  0.99000  0.96286  1.0000
  H   H21       1.0  0.80952  0.08401  0.97516  1.0000
  H   H22       1.0  0.78724  0.03339  0.99404  1.0000
  H   H23       1.0  0.81412  0.06049  0.06132  1.0000
  H   H24       1.0  0.85615  0.09249  0.03568  1.0000
  H   H25       1.0  0.85792  0.99099  0.04568  1.0000
  H   H26       1.0  0.88774  0.02935  0.07955  1.0000
