data_image0
_chemical_formula_structural       C2OC3OC4NC5FCFCNCOH18
_chemical_formula_sum              "C17 O3 N2 F2 H18"
_cell_length_a       30
_cell_length_b       30
_cell_length_c       30
_cell_angle_alpha    90
_cell_angle_beta     90
_cell_angle_gamma    90

_space_group_name_H-M_alt    "P 1"
_space_group_IT_number       1

loop_
  _space_group_symop_operation_xyz
  'x, y, z'

loop_
  _atom_site_type_symbol
  _atom_site_label
  _atom_site_symmetry_multiplicity
  _atom_site_fract_x
  _atom_site_fract_y
  _atom_site_fract_z
  _atom_site_occupancy
  C   C1        1.0  0.79619  0.02614  0.01881  1.0000
  C   C2        1.0  0.83461  0.00638  0.99321  1.0000
  O   O1        1.0  0.83180  0.99954  0.95281  1.0000
  C   C3        1.0  0.87623  0.99538  0.01789  1.0000
  C   C4        1.0  0.89759  0.95632  0.01152  1.0000
  C   C5        1.0  0.88161  0.91927  0.98185  1.0000
  O   O2        1.0  0.93696  0.94542  0.03312  1.0000
  C   C6        1.0  0.96229  0.98200  0.05020  1.0000
  C   C7        1.0  0.99118  0.00316  0.01367  1.0000
  C   C8        1.0  0.02384  0.96947  0.99338  1.0000
  C   C9        1.0  0.05345  0.99024  0.95742  1.0000
  N   N1        1.0  0.08101  0.02598  0.97567  1.0000
  C   C10       1.0  0.10101  0.05897  0.94574  1.0000
  C   C11       1.0  0.14371  0.04670  0.96768  1.0000
  C   C12       1.0  0.18899  0.05280  0.97090  1.0000
  C   C13       1.0  0.21198  0.02435  0.99991  1.0000
  C   C14       1.0  0.18900  0.99111  0.02389  1.0000
  F   F1        1.0  0.21217  0.96419  0.05102  1.0000
  C   C15       1.0  0.14306  0.98590  0.01977  1.0000
  F   F2        1.0  0.12116  0.95446  0.04261  1.0000
  C   C16       1.0  0.12174  0.01468  0.99185  1.0000
  N   N2        1.0  0.93339  0.01375  0.07127  1.0000
  C   C17       1.0  0.89440  0.02632  0.05178  1.0000
  O   O3        1.0  0.87571  0.06099  0.06250  1.0000
  H   H1        1.0  0.76494  0.01340  0.00499  1.0000
  H   H2        1.0  0.79689  0.06244  0.01593  1.0000
  H   H3        1.0  0.79743  0.01631  0.05388  1.0000
  H   H4        1.0  0.88947  0.88690  0.99684  1.0000
  H   H5        1.0  0.89829  0.92106  0.94946  1.0000
  H   H6        1.0  0.84553  0.91969  0.97667  1.0000
  H   H7        1.0  0.98394  0.96875  0.07646  1.0000
  H   H8        1.0  0.97017  0.01662  0.98693  1.0000
  H   H9        1.0  0.00942  0.03143  0.02797  1.0000
  H   H10       1.0  0.00515  0.94195  0.97822  1.0000
  H   H11       1.0  0.04428  0.95495  0.01989  1.0000
  H   H12       1.0  0.07393  0.96438  0.94157  1.0000
  H   H13       1.0  0.03192  0.00400  0.93124  1.0000
  H   H14       1.0  0.08757  0.09231  0.95196  1.0000
  H   H15       1.0  0.09721  0.05054  0.91042  1.0000
  H   H16       1.0  0.20622  0.07792  0.95148  1.0000
  H   H17       1.0  0.24785  0.02731  0.00395  1.0000
  H   H18       1.0  0.94673  0.03652  0.09224  1.0000
