data_image0
_chemical_formula_structural       C2N2COC4BrNC5BrOH9
_chemical_formula_sum              "C12 N3 O2 Br2 H9"
_cell_length_a       30
_cell_length_b       30
_cell_length_c       30
_cell_angle_alpha    90
_cell_angle_beta     90
_cell_angle_gamma    90

_space_group_name_H-M_alt    "P 1"
_space_group_IT_number       1

loop_
  _space_group_symop_operation_xyz
  'x, y, z'

loop_
  _atom_site_type_symbol
  _atom_site_label
  _atom_site_symmetry_multiplicity
  _atom_site_fract_x
  _atom_site_fract_y
  _atom_site_fract_z
  _atom_site_occupancy
  C   C1        1.0  0.91475  0.09757  0.02737  1.0000
  C   C2        1.0  0.94613  0.05800  0.02586  1.0000
  N   N1        1.0  0.98833  0.06673  0.03204  1.0000
  N   N2        1.0  0.01991  0.03442  0.02515  1.0000
  C   C3        1.0  0.02702  0.01812  0.98211  1.0000
  O   O1        1.0  0.00257  0.02492  0.95005  1.0000
  C   C4        1.0  0.06802  0.99119  0.97587  1.0000
  C   C5        1.0  0.09026  0.96969  0.01070  1.0000
  C   C6        1.0  0.12851  0.94483  0.00142  1.0000
  C   C7        1.0  0.14314  0.94214  0.95759  1.0000
  Br  Br1       1.0  0.19505  0.90851  0.94474  1.0000
  N   N3        1.0  0.12212  0.96224  0.92325  1.0000
  C   C8        1.0  0.08495  0.98607  0.93305  1.0000
  C   C9        1.0  0.92544  0.01469  0.01950  1.0000
  C   C10       1.0  0.93888  0.97137  0.02807  1.0000
  C   C11       1.0  0.90344  0.94296  0.01514  1.0000
  C   C12       1.0  0.87005  0.97042  0.00006  1.0000
  Br  Br2       1.0  0.81366  0.95114  0.97846  1.0000
  O   O2        1.0  0.88274  0.01374  0.00309  1.0000
  H   H1        1.0  0.88932  0.09225  0.05296  1.0000
  H   H2        1.0  0.93299  0.12817  0.03518  1.0000
  H   H3        1.0  0.89856  0.10163  0.99495  1.0000
  H   H4        1.0  0.04814  0.04046  0.04290  1.0000
  H   H5        1.0  0.07818  0.97110  0.04479  1.0000
  H   H6        1.0  0.14618  0.92782  0.02800  1.0000
  H   H7        1.0  0.06885  0.00150  0.90443  1.0000
  H   H8        1.0  0.97044  0.96133  0.04216  1.0000
  H   H9        1.0  0.90240  0.90699  0.01683  1.0000
