data_image0
_chemical_formula_structural       C2ONC5NC3ONC6ClC3H22
_chemical_formula_sum              "C19 O2 N3 Cl1 H22"
_cell_length_a       30
_cell_length_b       30
_cell_length_c       30
_cell_angle_alpha    90
_cell_angle_beta     90
_cell_angle_gamma    90

_space_group_name_H-M_alt    "P 1"
_space_group_IT_number       1

loop_
  _space_group_symop_operation_xyz
  'x, y, z'

loop_
  _atom_site_type_symbol
  _atom_site_label
  _atom_site_symmetry_multiplicity
  _atom_site_fract_x
  _atom_site_fract_y
  _atom_site_fract_z
  _atom_site_occupancy
  C   C1        1.0  0.25567  0.93690  0.00594  1.0000
  C   C2        1.0  0.23299  0.96993  0.97554  1.0000
  O   O1        1.0  0.25263  0.98541  0.94325  1.0000
  N   N1        1.0  0.19014  0.97974  0.98948  1.0000
  C   C3        1.0  0.15959  0.00948  0.96956  1.0000
  C   C4        1.0  0.16888  0.03452  0.93158  1.0000
  C   C5        1.0  0.13711  0.06398  0.91476  1.0000
  C   C6        1.0  0.09568  0.06808  0.93548  1.0000
  C   C7        1.0  0.08465  0.04216  0.97266  1.0000
  N   N2        1.0  0.04342  0.04904  0.99328  1.0000
  C   C8        1.0  0.02107  0.01207  0.01671  1.0000
  C   C9        1.0  0.02407  0.02007  0.06683  1.0000
  C   C10       1.0  0.97158  0.01026  0.00187  1.0000
  O   O2        1.0  0.95542  0.03785  0.97613  1.0000
  N   N3        1.0  0.94726  0.97511  0.01895  1.0000
  C   C11       1.0  0.90057  0.96894  0.00787  1.0000
  C   C12       1.0  0.87015  0.00020  0.03434  1.0000
  C   C13       1.0  0.82167  0.99277  0.02327  1.0000
  C   C14       1.0  0.79533  0.96440  0.04944  1.0000
  C   C15       1.0  0.75062  0.95720  0.03863  1.0000
  C   C16       1.0  0.73212  0.97823  0.00158  1.0000
  Cl  Cl1       1.0  0.67705  0.96927  0.98830  1.0000
  C   C17       1.0  0.75795  0.00638  0.97520  1.0000
  C   C18       1.0  0.80265  0.01360  0.98600  1.0000
  C   C19       1.0  0.11761  0.01389  0.98996  1.0000
  H   H1        1.0  0.23232  0.91112  0.01687  1.0000
  H   H2        1.0  0.26911  0.95441  0.03493  1.0000
  H   H3        1.0  0.28289  0.92059  0.98798  1.0000
  H   H4        1.0  0.17941  0.96419  0.01740  1.0000
  H   H5        1.0  0.20073  0.03242  0.91456  1.0000
  H   H6        1.0  0.14481  0.08402  0.88557  1.0000
  H   H7        1.0  0.07177  0.09177  0.92202  1.0000
  H   H8        1.0  0.02117  0.06453  0.97243  1.0000
  H   H9        1.0  0.03567  0.97973  0.00787  1.0000
  H   H10       1.0  0.05874  0.02360  0.07767  1.0000
  H   H11       1.0  0.00927  0.99252  0.08563  1.0000
  H   H12       1.0  0.00635  0.05059  0.07634  1.0000
  H   H13       1.0  0.96188  0.95302  0.03980  1.0000
  H   H14       1.0  0.89247  0.93403  0.01494  1.0000
  H   H15       1.0  0.89638  0.97422  0.97195  1.0000
  H   H16       1.0  0.87553  0.99536  0.07021  1.0000
  H   H17       1.0  0.87878  0.03515  0.02787  1.0000
  H   H18       1.0  0.80938  0.94780  0.07845  1.0000
  H   H19       1.0  0.73045  0.93524  0.05920  1.0000
  H   H20       1.0  0.74358  0.02279  0.94628  1.0000
  H   H21       1.0  0.82260  0.03564  0.96517  1.0000
  H   H22       1.0  0.11082  0.99530  0.02022  1.0000
