data_image0
_chemical_formula_structural       C4NCONC2NC7F3COC12NCH25
_chemical_formula_sum              "C28 N4 O2 F3 H25"
_cell_length_a       30
_cell_length_b       30
_cell_length_c       30
_cell_angle_alpha    90
_cell_angle_beta     90
_cell_angle_gamma    90

_space_group_name_H-M_alt    "P 1"
_space_group_IT_number       1

loop_
  _space_group_symop_operation_xyz
  'x, y, z'

loop_
  _atom_site_type_symbol
  _atom_site_label
  _atom_site_symmetry_multiplicity
  _atom_site_fract_x
  _atom_site_fract_y
  _atom_site_fract_z
  _atom_site_occupancy
  C   C1        1.0  0.95857  0.03435  0.11284  1.0000
  C   C2        1.0  0.91922  0.04569  0.08379  1.0000
  C   C3        1.0  0.91283  0.03175  0.04150  1.0000
  C   C4        1.0  0.94234  0.00035  0.01548  1.0000
  N   N1        1.0  0.97079  0.02831  0.98793  1.0000
  C   C5        1.0  0.01533  0.01929  0.98362  1.0000
  O   O1        1.0  0.03528  0.98990  0.00353  1.0000
  N   N2        1.0  0.03513  0.04843  0.95438  1.0000
  C   C6        1.0  0.08326  0.04807  0.94888  1.0000
  C   C7        1.0  0.10128  0.00680  0.92427  1.0000
  N   N3        1.0  0.14940  0.01181  0.91674  1.0000
  C   C8        1.0  0.17378  0.97784  0.89574  1.0000
  C   C9        1.0  0.15301  0.94380  0.87117  1.0000
  C   C10       1.0  0.17758  0.91136  0.84838  1.0000
  C   C11       1.0  0.22379  0.91282  0.84860  1.0000
  C   C12       1.0  0.24529  0.94695  0.87143  1.0000
  C   C13       1.0  0.22085  0.97960  0.89496  1.0000
  C   C14       1.0  0.24652  0.01649  0.91755  1.0000
  F   F1        1.0  0.28799  0.00346  0.93124  1.0000
  F   F2        1.0  0.25339  0.05238  0.89053  1.0000
  F   F3        1.0  0.22631  0.03271  0.95508  1.0000
  C   C15       1.0  0.91348  0.97154  0.98447  1.0000
  O   O2        1.0  0.93934  0.93707  0.96097  1.0000
  C   C16       1.0  0.91653  0.90491  0.98168  1.0000
  C   C17       1.0  0.91463  0.85969  0.98355  1.0000
  C   C18       1.0  0.88290  0.84238  0.01292  1.0000
  C   C19       1.0  0.85524  0.87096  0.03838  1.0000
  C   C20       1.0  0.85888  0.91739  0.03494  1.0000
  C   C21       1.0  0.89032  0.93328  0.00591  1.0000
  C   C22       1.0  0.88573  0.07566  0.10395  1.0000
  C   C23       1.0  0.89732  0.11889  0.11728  1.0000
  C   C24       1.0  0.86559  0.14712  0.13635  1.0000
  C   C25       1.0  0.82193  0.13233  0.14240  1.0000
  C   C26       1.0  0.80993  0.08922  0.12939  1.0000
  C   C27       1.0  0.76515  0.07383  0.13570  1.0000
  N   N4        1.0  0.72891  0.06122  0.14063  1.0000
  C   C28       1.0  0.84176  0.06102  0.11021  1.0000
  H   H1        1.0  0.98232  0.01202  0.09668  1.0000
  H   H2        1.0  0.97711  0.06445  0.12198  1.0000
  H   H3        1.0  0.94734  0.01797  0.14350  1.0000
  H   H4        1.0  0.88375  0.04403  0.02354  1.0000
  H   H5        1.0  0.96245  0.97917  0.03733  1.0000
  H   H6        1.0  0.95669  0.04412  0.96185  1.0000
  H   H7        1.0  0.02064  0.07879  0.95370  1.0000
  H   H8        1.0  0.09866  0.05077  0.98189  1.0000
  H   H9        1.0  0.09186  0.07828  0.93028  1.0000
  H   H10       1.0  0.09473  0.97654  0.94364  1.0000
  H   H11       1.0  0.08375  0.00394  0.89231  1.0000
  H   H12       1.0  0.16529  0.02287  0.94486  1.0000
  H   H13       1.0  0.11690  0.94147  0.86927  1.0000
  H   H14       1.0  0.16029  0.88521  0.83022  1.0000
  H   H15       1.0  0.24297  0.88785  0.83067  1.0000
  H   H16       1.0  0.28158  0.94836  0.87076  1.0000
  H   H17       1.0  0.89360  0.99086  0.96052  1.0000
  H   H18       1.0  0.93632  0.83868  0.96386  1.0000
  H   H19       1.0  0.87937  0.80647  0.01649  1.0000
  H   H20       1.0  0.83091  0.85646  0.06108  1.0000
  H   H21       1.0  0.83796  0.93935  0.05459  1.0000
  H   H22       1.0  0.93118  0.13109  0.11257  1.0000
  H   H23       1.0  0.87497  0.18067  0.14650  1.0000
  H   H24       1.0  0.79745  0.15458  0.15729  1.0000
  H   H25       1.0  0.83237  0.02734  0.10048  1.0000
