data_image0
_chemical_formula_structural       C2OC2NC3OC5H21
_chemical_formula_sum              "C12 O2 N1 H21"
_cell_length_a       30
_cell_length_b       30
_cell_length_c       30
_cell_angle_alpha    90
_cell_angle_beta     90
_cell_angle_gamma    90

_space_group_name_H-M_alt    "P 1"
_space_group_IT_number       1

loop_
  _space_group_symop_operation_xyz
  'x, y, z'

loop_
  _atom_site_type_symbol
  _atom_site_label
  _atom_site_symmetry_multiplicity
  _atom_site_fract_x
  _atom_site_fract_y
  _atom_site_fract_z
  _atom_site_occupancy
  C   C1        1.0  0.13009  0.04814  0.02852  1.0000
  C   C2        1.0  0.10852  0.02526  0.98926  1.0000
  O   O1        1.0  0.12349  0.03047  0.95137  1.0000
  C   C3        1.0  0.06833  0.99495  0.00014  1.0000
  C   C4        1.0  0.08670  0.94737  0.00297  1.0000
  N   N1        1.0  0.03267  0.00090  0.96646  1.0000
  C   C5        1.0  0.01468  0.04673  0.96451  1.0000
  C   C6        1.0  0.96666  0.05212  0.98161  1.0000
  C   C7        1.0  0.95912  0.02119  0.02119  1.0000
  O   O2        1.0  0.91926  0.03126  0.04502  1.0000
  C   C8        1.0  0.87956  0.01310  0.02677  1.0000
  C   C9        1.0  0.88273  0.96266  0.02612  1.0000
  C   C10       1.0  0.92042  0.94885  0.99530  1.0000
  C   C11       1.0  0.96458  0.97202  0.00711  1.0000
  C   C12       1.0  0.99691  0.96775  0.96723  1.0000
  H   H1        1.0  0.10577  0.06977  0.04488  1.0000
  H   H2        1.0  0.14256  0.02321  0.05196  1.0000
  H   H3        1.0  0.15803  0.06853  0.01703  1.0000
  H   H4        1.0  0.05582  0.00436  0.03314  1.0000
  H   H5        1.0  0.11643  0.94605  0.02416  1.0000
  H   H6        1.0  0.06229  0.92438  0.01732  1.0000
  H   H7        1.0  0.09644  0.93491  0.97003  1.0000
  H   H8        1.0  0.03592  0.07020  0.98280  1.0000
  H   H9        1.0  0.01570  0.05782  0.92968  1.0000
  H   H10       1.0  0.94276  0.04460  0.95497  1.0000
  H   H11       1.0  0.96052  0.08688  0.99109  1.0000
  H   H12       1.0  0.98553  0.02868  0.04536  1.0000
  H   H13       1.0  0.85186  0.02347  0.04813  1.0000
  H   H14       1.0  0.87354  0.02690  0.99349  1.0000
  H   H15       1.0  0.85125  0.94807  0.01479  1.0000
  H   H16       1.0  0.88951  0.95014  0.05978  1.0000
  H   H17       1.0  0.92479  0.91258  0.99631  1.0000
  H   H18       1.0  0.91059  0.95713  0.96104  1.0000
  H   H19       1.0  0.97869  0.95433  0.03591  1.0000
  H   H20       1.0  0.00990  0.93366  0.96536  1.0000
  H   H21       1.0  0.97841  0.97155  0.93583  1.0000
