data_image0
_chemical_formula_structural       C2OCNC6OCOC2F3N2H16
_chemical_formula_sum              "C12 O3 N3 F3 H16"
_cell_length_a       30
_cell_length_b       30
_cell_length_c       30
_cell_angle_alpha    90
_cell_angle_beta     90
_cell_angle_gamma    90

_space_group_name_H-M_alt    "P 1"
_space_group_IT_number       1

loop_
  _space_group_symop_operation_xyz
  'x, y, z'

loop_
  _atom_site_type_symbol
  _atom_site_label
  _atom_site_symmetry_multiplicity
  _atom_site_fract_x
  _atom_site_fract_y
  _atom_site_fract_z
  _atom_site_occupancy
  C   C1        1.0  0.80662  0.04318  0.98180  1.0000
  C   C2        1.0  0.78863  0.99634  0.97862  1.0000
  O   O1        1.0  0.74998  0.98973  0.96611  1.0000
  C   C3        1.0  0.81703  0.95813  0.99475  1.0000
  N   N1        1.0  0.86416  0.96506  0.98782  1.0000
  C   C4        1.0  0.89659  0.97050  0.01920  1.0000
  C   C5        1.0  0.93470  0.97610  0.99436  1.0000
  C   C6        1.0  0.97853  0.98242  0.01125  1.0000
  C   C7        1.0  0.01514  0.99734  0.98974  1.0000
  C   C8        1.0  0.01636  0.01305  0.94206  1.0000
  C   C9        1.0  0.05942  0.00022  0.01359  1.0000
  O   O2        1.0  0.09052  0.97275  0.99058  1.0000
  C   C10       1.0  0.13193  0.96970  0.01327  1.0000
  O   O3        1.0  0.15291  0.01202  0.01669  1.0000
  C   C11       1.0  0.19717  0.00840  0.03434  1.0000
  C   C12       1.0  0.21916  0.05382  0.04040  1.0000
  F   F1        1.0  0.19602  0.07978  0.06904  1.0000
  F   F2        1.0  0.22324  0.07594  0.00143  1.0000
  F   F3        1.0  0.26068  0.04878  0.05746  1.0000
  N   N2        1.0  0.92461  0.97297  0.95011  1.0000
  N   N3        1.0  0.88107  0.96607  0.94639  1.0000
  H   H1        1.0  0.77993  0.06693  0.97447  1.0000
  H   H2        1.0  0.83335  0.04814  0.95758  1.0000
  H   H3        1.0  0.81863  0.04952  0.01560  1.0000
  H   H4        1.0  0.81120  0.95346  0.03045  1.0000
  H   H5        1.0  0.80785  0.92761  0.97696  1.0000
  H   H6        1.0  0.89013  0.97006  0.05460  1.0000
  H   H7        1.0  0.98251  0.97335  0.04616  1.0000
  H   H8        1.0  0.98395  0.02434  0.92989  1.0000
  H   H9        1.0  0.02855  0.98647  0.92025  1.0000
  H   H10       1.0  0.03877  0.04170  0.93871  1.0000
  H   H11       1.0  0.07092  0.03491  0.01368  1.0000
  H   H12       1.0  0.05656  0.98908  0.04829  1.0000
  H   H13       1.0  0.12688  0.95528  0.04648  1.0000
  H   H14       1.0  0.15304  0.94706  0.99392  1.0000
  H   H15       1.0  0.19578  0.99150  0.06670  1.0000
  H   H16       1.0  0.21744  0.98828  0.01157  1.0000
