data_image0
_chemical_formula_structural       C7NC3NC6N2C2NCNOC2NH31
_chemical_formula_sum              "C21 N7 O1 H31"
_cell_length_a       30
_cell_length_b       30
_cell_length_c       30
_cell_angle_alpha    90
_cell_angle_beta     90
_cell_angle_gamma    90

_space_group_name_H-M_alt    "P 1"
_space_group_IT_number       1

loop_
  _space_group_symop_operation_xyz
  'x, y, z'

loop_
  _atom_site_type_symbol
  _atom_site_label
  _atom_site_symmetry_multiplicity
  _atom_site_fract_x
  _atom_site_fract_y
  _atom_site_fract_z
  _atom_site_occupancy
  C   C1        1.0  0.19449  0.92663  0.95163  1.0000
  C   C2        1.0  0.17349  0.96486  0.97686  1.0000
  C   C3        1.0  0.12925  0.96383  0.98515  1.0000
  C   C4        1.0  0.10219  0.99614  0.00865  1.0000
  C   C5        1.0  0.05900  0.99098  0.01500  1.0000
  C   C6        1.0  0.02181  0.96342  0.00781  1.0000
  C   C7        1.0  0.00796  0.92364  0.03374  1.0000
  N   N1        1.0  0.96443  0.92786  0.05553  1.0000
  C   C8        1.0  0.92377  0.93384  0.02777  1.0000
  C   C9        1.0  0.92656  0.91994  0.97869  1.0000
  C   C10       1.0  0.90012  0.97953  0.03706  1.0000
  N   N2        1.0  0.87527  0.99929  0.99942  1.0000
  C   C11       1.0  0.82978  0.98235  0.99391  1.0000
  C   C12       1.0  0.79632  0.00720  0.02319  1.0000
  C   C13       1.0  0.78184  0.05222  0.00446  1.0000
  C   C14       1.0  0.81988  0.08539  0.99806  1.0000
  C   C15       1.0  0.85269  0.07105  0.96205  1.0000
  C   C16       1.0  0.88889  0.03994  0.98024  1.0000
  N   N3        1.0  0.92899  0.05605  0.97511  1.0000
  N   N4        1.0  0.96264  0.02633  0.98470  1.0000
  C   C17       1.0  0.99212  0.03890  0.01422  1.0000
  C   C18       1.0  0.99186  0.08511  0.03444  1.0000
  N   N5        1.0  0.02236  0.00892  0.03252  1.0000
  C   C19       1.0  0.20509  0.99891  0.98896  1.0000
  N   N6        1.0  0.19635  0.03967  0.00525  1.0000
  O   O1        1.0  0.23819  0.05884  0.01088  1.0000
  C   C20       1.0  0.26840  0.02788  0.99727  1.0000
  C   C21       1.0  0.31576  0.04045  0.00009  1.0000
  N   N7        1.0  0.25004  0.99064  0.98360  1.0000
  H   H1        1.0  0.16978  0.90191  0.94099  1.0000
  H   H2        1.0  0.21882  0.90905  0.97245  1.0000
  H   H3        1.0  0.21118  0.93852  0.92138  1.0000
  H   H4        1.0  0.11065  0.93504  0.97299  1.0000
  H   H5        1.0  0.11760  0.02608  0.02184  1.0000
  H   H6        1.0  0.01038  0.96347  0.97366  1.0000
  H   H7        1.0  0.03255  0.91699  0.06000  1.0000
  H   H8        1.0  0.00864  0.89397  0.01246  1.0000
  H   H9        1.0  0.96656  0.95283  0.07851  1.0000
  H   H10       1.0  0.90081  0.90914  0.04216  1.0000
  H   H11       1.0  0.94396  0.94414  0.95792  1.0000
  H   H12       1.0  0.89313  0.91579  0.96461  1.0000
  H   H13       1.0  0.94300  0.88756  0.97504  1.0000
  H   H14       1.0  0.87690  0.97406  0.06489  1.0000
  H   H15       1.0  0.92318  0.00387  0.05134  1.0000
  H   H16       1.0  0.81991  0.98344  0.95874  1.0000
  H   H17       1.0  0.82897  0.94699  0.00318  1.0000
  H   H18       1.0  0.80946  0.01175  0.05698  1.0000
  H   H19       1.0  0.76636  0.98647  0.02642  1.0000
  H   H20       1.0  0.76443  0.04722  0.97268  1.0000
  H   H21       1.0  0.75739  0.06687  0.02737  1.0000
  H   H22       1.0  0.83707  0.09103  0.02983  1.0000
  H   H23       1.0  0.80515  0.11736  0.98816  1.0000
  H   H24       1.0  0.86898  0.10100  0.94875  1.0000
  H   H25       1.0  0.83594  0.05504  0.93383  1.0000
  H   H26       1.0  0.96287  0.08859  0.05627  1.0000
  H   H27       1.0  0.99031  0.11027  0.00811  1.0000
  H   H28       1.0  0.02208  0.09067  0.05405  1.0000
  H   H29       1.0  0.32668  0.04113  0.03487  1.0000
  H   H30       1.0  0.32125  0.07344  0.98557  1.0000
  H   H31       1.0  0.33651  0.01650  0.98205  1.0000
