data_image0
_chemical_formula_structural       C2OC5SO2NC9SC3H25
_chemical_formula_sum              "C19 O3 S2 N1 H25"
_cell_length_a       30
_cell_length_b       30
_cell_length_c       30
_cell_angle_alpha    90
_cell_angle_beta     90
_cell_angle_gamma    90

_space_group_name_H-M_alt    "P 1"
_space_group_IT_number       1

loop_
  _space_group_symop_operation_xyz
  'x, y, z'

loop_
  _atom_site_type_symbol
  _atom_site_label
  _atom_site_symmetry_multiplicity
  _atom_site_fract_x
  _atom_site_fract_y
  _atom_site_fract_z
  _atom_site_occupancy
  C   C1        1.0  0.18212  0.90235  0.94577  1.0000
  C   C2        1.0  0.14815  0.93930  0.94676  1.0000
  O   O1        1.0  0.13924  0.96099  0.91318  1.0000
  C   C3        1.0  0.12447  0.94916  0.98934  1.0000
  C   C4        1.0  0.12460  0.91919  0.02519  1.0000
  C   C5        1.0  0.10159  0.92938  0.06442  1.0000
  C   C6        1.0  0.07815  0.96934  0.06800  1.0000
  C   C7        1.0  0.07765  0.99898  0.03204  1.0000
  S   S1        1.0  0.04834  0.05025  0.03730  1.0000
  O   O2        1.0  0.05114  0.06299  0.08379  1.0000
  O   O3        1.0  0.06382  0.07981  0.00250  1.0000
  N   N1        1.0  0.99492  0.03508  0.02608  1.0000
  C   C8        1.0  0.98459  0.01962  0.98017  1.0000
  C   C9        1.0  0.97554  0.96939  0.97960  1.0000
  C   C10       1.0  0.93297  0.95445  0.00366  1.0000
  C   C11       1.0  0.88893  0.97281  0.98465  1.0000
  C   C12       1.0  0.84985  0.95657  0.01318  1.0000
  C   C13       1.0  0.88156  0.95932  0.93606  1.0000
  C   C14       1.0  0.96015  0.06304  0.04736  1.0000
  C   C15       1.0  0.95516  0.10817  0.02626  1.0000
  C   C16       1.0  0.98099  0.14508  0.03629  1.0000
  S   S2        1.0  0.96608  0.19152  0.00685  1.0000
  C   C17       1.0  0.92407  0.16354  0.98061  1.0000
  C   C18       1.0  0.92159  0.11972  0.99406  1.0000
  C   C19       1.0  0.10102  0.98936  0.99289  1.0000
  H   H1        1.0  0.16534  0.87002  0.94540  1.0000
  H   H2        1.0  0.20227  0.90548  0.91552  1.0000
  H   H3        1.0  0.20469  0.90486  0.97427  1.0000
  H   H4        1.0  0.14216  0.88756  0.02333  1.0000
  H   H5        1.0  0.10193  0.90610  0.09224  1.0000
  H   H6        1.0  0.06041  0.97722  0.09864  1.0000
  H   H7        1.0  0.01268  0.02651  0.95787  1.0000
  H   H8        1.0  0.95641  0.03766  0.96580  1.0000
  H   H9        1.0  0.00365  0.95170  0.99478  1.0000
  H   H10       1.0  0.97442  0.95812  0.94487  1.0000
  H   H11       1.0  0.93557  0.96340  0.03902  1.0000
  H   H12       1.0  0.93188  0.91787  0.00271  1.0000
  H   H13       1.0  0.88917  0.00927  0.98636  1.0000
  H   H14       1.0  0.81830  0.97033  0.00100  1.0000
  H   H15       1.0  0.84724  0.92016  0.01264  1.0000
  H   H16       1.0  0.85387  0.96714  0.04789  1.0000
  H   H17       1.0  0.90664  0.97428  0.91420  1.0000
  H   H18       1.0  0.84890  0.97065  0.92429  1.0000
  H   H19       1.0  0.88302  0.92307  0.93200  1.0000
  H   H20       1.0  0.92825  0.04530  0.04581  1.0000
  H   H21       1.0  0.96700  0.06650  0.08309  1.0000
  H   H22       1.0  0.00852  0.14706  0.05954  1.0000
  H   H23       1.0  0.90316  0.18055  0.95669  1.0000
  H   H24       1.0  0.89679  0.09682  0.98124  1.0000
  H   H25       1.0  0.10098  0.01291  0.96525  1.0000
