data_image0
_chemical_formula_structural       C2ONC3NC3O2C5H24
_chemical_formula_sum              "C13 O3 N2 H24"
_cell_length_a       30
_cell_length_b       30
_cell_length_c       30
_cell_angle_alpha    90
_cell_angle_beta     90
_cell_angle_gamma    90

_space_group_name_H-M_alt    "P 1"
_space_group_IT_number       1

loop_
  _space_group_symop_operation_xyz
  'x, y, z'

loop_
  _atom_site_type_symbol
  _atom_site_label
  _atom_site_symmetry_multiplicity
  _atom_site_fract_x
  _atom_site_fract_y
  _atom_site_fract_z
  _atom_site_occupancy
  C   C1        1.0  0.18841  0.04777  0.97836  1.0000
  C   C2        1.0  0.15353  0.03904  0.01343  1.0000
  O   O1        1.0  0.15558  0.05696  0.05025  1.0000
  N   N1        1.0  0.11993  0.01014  0.00186  1.0000
  C   C3        1.0  0.11443  0.98700  0.95968  1.0000
  C   C4        1.0  0.07805  0.95280  0.96877  1.0000
  C   C5        1.0  0.04860  0.97628  0.00355  1.0000
  N   N2        1.0  0.01986  0.94403  0.02650  1.0000
  C   C6        1.0  0.97761  0.96290  0.04461  1.0000
  C   C7        1.0  0.98457  0.00250  0.07575  1.0000
  C   C8        1.0  0.94444  0.97316  0.00659  1.0000
  O   O2        1.0  0.94951  0.96076  0.96799  1.0000
  O   O3        1.0  0.90848  0.99577  0.02242  1.0000
  C   C9        1.0  0.87231  0.00878  0.99307  1.0000
  C   C10       1.0  0.88853  0.04088  0.95679  1.0000
  C   C11       1.0  0.83933  0.03363  0.02335  1.0000
  C   C12       1.0  0.84881  0.96793  0.97337  1.0000
  C   C13       1.0  0.08412  0.99915  0.03269  1.0000
  H   H1        1.0  0.17280  0.05866  0.94729  1.0000
  H   H2        1.0  0.21066  0.07432  0.98979  1.0000
  H   H3        1.0  0.20815  0.01767  0.97273  1.0000
  H   H4        1.0  0.10380  0.01145  0.93474  1.0000
  H   H5        1.0  0.14569  0.97168  0.94888  1.0000
  H   H6        1.0  0.09297  0.92247  0.98281  1.0000
  H   H7        1.0  0.05983  0.94353  0.93856  1.0000
  H   H8        1.0  0.02900  0.00165  0.98588  1.0000
  H   H9        1.0  0.01053  0.92021  0.00384  1.0000
  H   H10       1.0  0.96223  0.93593  0.06396  1.0000
  H   H11       1.0  0.99342  0.03280  0.05744  1.0000
  H   H12       1.0  0.95394  0.00984  0.09425  1.0000
  H   H13       1.0  0.01053  0.99552  0.10045  1.0000
  H   H14       1.0  0.86055  0.05499  0.93806  1.0000
  H   H15       1.0  0.90775  0.06829  0.97140  1.0000
  H   H16       1.0  0.91048  0.02436  0.93279  1.0000
  H   H17       1.0  0.82789  0.01207  0.05055  1.0000
  H   H18       1.0  0.85534  0.06245  0.03910  1.0000
  H   H19       1.0  0.81011  0.04535  0.00486  1.0000
  H   H20       1.0  0.84015  0.94405  0.99962  1.0000
  H   H21       1.0  0.81827  0.97739  0.95574  1.0000
  H   H22       1.0  0.87001  0.95012  0.94963  1.0000
  H   H23       1.0  0.07196  0.02921  0.04934  1.0000
  H   H24       1.0  0.09783  0.97649  0.05788  1.0000
