data_image0
_chemical_formula_structural       C2ONCONC9H16
_chemical_formula_sum              "C12 O2 N2 H16"
_cell_length_a       30
_cell_length_b       30
_cell_length_c       30
_cell_angle_alpha    90
_cell_angle_beta     90
_cell_angle_gamma    90

_space_group_name_H-M_alt    "P 1"
_space_group_IT_number       1

loop_
  _space_group_symop_operation_xyz
  'x, y, z'

loop_
  _atom_site_type_symbol
  _atom_site_label
  _atom_site_symmetry_multiplicity
  _atom_site_fract_x
  _atom_site_fract_y
  _atom_site_fract_z
  _atom_site_occupancy
  C   C1        1.0  0.16970  0.95152  0.98102  1.0000
  C   C2        1.0  0.14396  0.98419  0.00917  1.0000
  O   O1        1.0  0.16152  0.00337  0.04072  1.0000
  N   N1        1.0  0.09914  0.98525  0.99919  1.0000
  C   C3        1.0  0.07543  0.02446  0.99923  1.0000
  O   O2        1.0  0.09056  0.06180  0.00517  1.0000
  N   N2        1.0  0.03108  0.01645  0.98944  1.0000
  C   C4        1.0  0.99973  0.05350  0.99073  1.0000
  C   C5        1.0  0.95370  0.04089  0.97177  1.0000
  C   C6        1.0  0.92289  0.08158  0.97104  1.0000
  C   C7        1.0  0.93212  0.00238  0.99680  1.0000
  C   C8        1.0  0.92044  0.96338  0.97374  1.0000
  C   C9        1.0  0.90109  0.92746  0.99611  1.0000
  C   C10       1.0  0.89311  0.93005  0.04177  1.0000
  C   C11       1.0  0.90435  0.96860  0.06507  1.0000
  C   C12       1.0  0.92367  0.00458  0.04276  1.0000
  H   H1        1.0  0.20415  0.96297  0.97779  1.0000
  H   H2        1.0  0.16907  0.91875  0.99694  1.0000
  H   H3        1.0  0.15546  0.94901  0.94755  1.0000
  H   H4        1.0  0.08814  0.96391  0.97573  1.0000
  H   H5        1.0  0.01945  0.98785  0.00309  1.0000
  H   H6        1.0  0.99749  0.06479  0.02542  1.0000
  H   H7        1.0  0.01400  0.08104  0.97136  1.0000
  H   H8        1.0  0.95876  0.03053  0.93700  1.0000
  H   H9        1.0  0.93724  0.10820  0.95059  1.0000
  H   H10       1.0  0.91735  0.09504  0.00453  1.0000
  H   H11       1.0  0.89028  0.07304  0.95696  1.0000
  H   H12       1.0  0.92622  0.96070  0.93803  1.0000
  H   H13       1.0  0.89207  0.89749  0.97785  1.0000
  H   H14       1.0  0.87793  0.90213  0.05916  1.0000
  H   H15       1.0  0.89794  0.97074  0.10067  1.0000
  H   H16       1.0  0.93196  0.03436  0.06172  1.0000
