data_image0
_chemical_formula_structural       C3ONC5FC12H22
_chemical_formula_sum              "C20 O1 N1 F1 H22"
_cell_length_a       30
_cell_length_b       30
_cell_length_c       30
_cell_angle_alpha    90
_cell_angle_beta     90
_cell_angle_gamma    90

_space_group_name_H-M_alt    "P 1"
_space_group_IT_number       1

loop_
  _space_group_symop_operation_xyz
  'x, y, z'

loop_
  _atom_site_type_symbol
  _atom_site_label
  _atom_site_symmetry_multiplicity
  _atom_site_fract_x
  _atom_site_fract_y
  _atom_site_fract_z
  _atom_site_occupancy
  C   C1        1.0  0.00028  0.90570  0.04058  1.0000
  C   C2        1.0  0.98543  0.95465  0.04027  1.0000
  C   C3        1.0  0.02693  0.98431  0.04537  1.0000
  O   O1        1.0  0.03280  0.00526  0.08008  1.0000
  N   N1        1.0  0.05568  0.98326  0.00937  1.0000
  C   C4        1.0  0.09468  0.00877  0.00312  1.0000
  C   C5        1.0  0.10907  0.04206  0.03238  1.0000
  C   C6        1.0  0.14806  0.06622  0.02367  1.0000
  C   C7        1.0  0.17291  0.05733  0.98553  1.0000
  C   C8        1.0  0.15848  0.02440  0.95641  1.0000
  F   F1        1.0  0.18216  0.01573  0.91956  1.0000
  C   C9        1.0  0.11978  0.00020  0.96476  1.0000
  C   C10       1.0  0.95351  0.96921  0.00136  1.0000
  C   C11       1.0  0.94683  0.02038  0.00295  1.0000
  C   C12       1.0  0.92572  0.04010  0.04000  1.0000
  C   C13       1.0  0.91973  0.08619  0.04299  1.0000
  C   C14       1.0  0.93497  0.11382  0.00908  1.0000
  C   C15       1.0  0.95637  0.09531  0.97238  1.0000
  C   C16       1.0  0.96238  0.04916  0.96941  1.0000
  C   C17       1.0  0.90725  0.94593  0.00566  1.0000
  C   C18       1.0  0.88564  0.95052  0.95978  1.0000
  C   C19       1.0  0.92420  0.95173  0.92670  1.0000
  C   C20       1.0  0.96673  0.95061  0.95489  1.0000
  H   H1        1.0  0.97188  0.88288  0.04112  1.0000
  H   H2        1.0  0.02134  0.89719  0.01206  1.0000
  H   H3        1.0  0.02015  0.89886  0.07049  1.0000
  H   H4        1.0  0.96676  0.95930  0.07152  1.0000
  H   H5        1.0  0.04874  0.96114  0.98498  1.0000
  H   H6        1.0  0.09049  0.05034  0.06233  1.0000
  H   H7        1.0  0.15874  0.09199  0.04681  1.0000
  H   H8        1.0  0.20317  0.07579  0.97835  1.0000
  H   H9        1.0  0.10999  0.97484  0.94091  1.0000
  H   H10       1.0  0.91400  0.01975  0.06764  1.0000
  H   H11       1.0  0.90348  0.10043  0.07206  1.0000
  H   H12       1.0  0.93053  0.14968  0.01144  1.0000
  H   H13       1.0  0.96874  0.11682  0.94598  1.0000
  H   H14       1.0  0.97975  0.03680  0.94020  1.0000
  H   H15       1.0  0.91116  0.91031  0.01279  1.0000
  H   H16       1.0  0.88571  0.95943  0.03181  1.0000
  H   H17       1.0  0.86274  0.92294  0.95300  1.0000
  H   H18       1.0  0.86637  0.98150  0.95769  1.0000
  H   H19       1.0  0.92306  0.92339  0.90372  1.0000
  H   H20       1.0  0.92254  0.98209  0.90648  1.0000
  H   H21       1.0  0.99413  0.96808  0.93845  1.0000
  H   H22       1.0  0.97697  0.91563  0.95729  1.0000
