data_image0
_chemical_formula_structural       C3NC8SCNCN2CONCOH23
_chemical_formula_sum              "C15 N5 S1 O2 H23"
_cell_length_a       30
_cell_length_b       30
_cell_length_c       30
_cell_angle_alpha    90
_cell_angle_beta     90
_cell_angle_gamma    90

_space_group_name_H-M_alt    "P 1"
_space_group_IT_number       1

loop_
  _space_group_symop_operation_xyz
  'x, y, z'

loop_
  _atom_site_type_symbol
  _atom_site_label
  _atom_site_symmetry_multiplicity
  _atom_site_fract_x
  _atom_site_fract_y
  _atom_site_fract_z
  _atom_site_occupancy
  C   C1        1.0  0.99897  0.86936  0.03112  1.0000
  C   C2        1.0  0.96180  0.90179  0.01767  1.0000
  C   C3        1.0  0.92287  0.89645  0.05045  1.0000
  N   N1        1.0  0.97772  0.94823  0.01769  1.0000
  C   C4        1.0  0.01377  0.95695  0.98577  1.0000
  C   C5        1.0  0.01624  0.00712  0.97411  1.0000
  C   C6        1.0  0.06389  0.02278  0.96345  1.0000
  C   C7        1.0  0.09528  0.02608  0.00370  1.0000
  C   C8        1.0  0.14191  0.03740  0.98945  1.0000
  C   C9        1.0  0.17621  0.00857  0.97892  1.0000
  C   C10       1.0  0.21598  0.03151  0.96678  1.0000
  C   C11       1.0  0.21074  0.07706  0.96853  1.0000
  S   S1        1.0  0.15818  0.09195  0.98474  1.0000
  C   C12       1.0  0.99287  0.03510  0.01013  1.0000
  N   N2        1.0  0.94695  0.01953  0.01598  1.0000
  C   C13       1.0  0.91016  0.04616  0.00734  1.0000
  N   N3        1.0  0.91366  0.08866  0.99791  1.0000
  N   N4        1.0  0.87463  0.11164  0.99130  1.0000
  C   C14       1.0  0.83306  0.09805  0.00501  1.0000
  O   O1        1.0  0.80007  0.12209  0.00326  1.0000
  N   N5        1.0  0.83093  0.05582  0.02181  1.0000
  C   C15       1.0  0.86393  0.02423  0.00738  1.0000
  O   O2        1.0  0.94100  0.97551  0.00214  1.0000
  H   H1        1.0  0.02603  0.86900  0.00664  1.0000
  H   H2        1.0  0.01314  0.87808  0.06364  1.0000
  H   H3        1.0  0.98613  0.83524  0.03334  1.0000
  H   H4        1.0  0.94992  0.89257  0.98430  1.0000
  H   H5        1.0  0.91174  0.86169  0.05169  1.0000
  H   H6        1.0  0.93250  0.90632  0.08428  1.0000
  H   H7        1.0  0.89407  0.91657  0.04055  1.0000
  H   H8        1.0  0.00904  0.93817  0.95471  1.0000
  H   H9        1.0  0.04517  0.94553  0.00039  1.0000
  H   H10       1.0  0.99690  0.01152  0.94323  1.0000
  H   H11       1.0  0.07824  0.00030  0.93837  1.0000
  H   H12       1.0  0.06185  0.05564  0.94742  1.0000
  H   H13       1.0  0.08315  0.05128  0.02722  1.0000
  H   H14       1.0  0.09607  0.99446  0.02198  1.0000
  H   H15       1.0  0.17299  0.97261  0.97985  1.0000
  H   H16       1.0  0.24688  0.01543  0.95730  1.0000
  H   H17       1.0  0.23526  0.10243  0.96113  1.0000
  H   H18       1.0  0.00997  0.03184  0.04225  1.0000
  H   H19       1.0  0.99422  0.07046  0.00111  1.0000
  H   H20       1.0  0.87767  0.14421  0.98278  1.0000
  H   H21       1.0  0.79946  0.04544  0.02780  1.0000
  H   H22       1.0  0.86288  0.99584  0.03018  1.0000
  H   H23       1.0  0.85592  0.01333  0.97349  1.0000
