data_image0
_chemical_formula_structural       C8NC5NH24
_chemical_formula_sum              "C13 N2 H24"
_cell_length_a       30
_cell_length_b       30
_cell_length_c       30
_cell_angle_alpha    90
_cell_angle_beta     90
_cell_angle_gamma    90

_space_group_name_H-M_alt    "P 1"
_space_group_IT_number       1

loop_
  _space_group_symop_operation_xyz
  'x, y, z'

loop_
  _atom_site_type_symbol
  _atom_site_label
  _atom_site_symmetry_multiplicity
  _atom_site_fract_x
  _atom_site_fract_y
  _atom_site_fract_z
  _atom_site_occupancy
  C   C1        1.0  0.97964  0.85045  0.97337  1.0000
  C   C2        1.0  0.97313  0.87135  0.01847  1.0000
  C   C3        1.0  0.98156  0.84003  0.05687  1.0000
  C   C4        1.0  0.96109  0.91396  0.02609  1.0000
  C   C5        1.0  0.95065  0.94994  0.99225  1.0000
  C   C6        1.0  0.90443  0.96925  0.00214  1.0000
  C   C7        1.0  0.98753  0.98572  0.99366  1.0000
  C   C8        1.0  0.98219  0.02131  0.95736  1.0000
  N   N1        1.0  0.02043  0.05149  0.95348  1.0000
  C   C9        1.0  0.02977  0.07975  0.99243  1.0000
  C   C10       1.0  0.99110  0.11155  0.00250  1.0000
  C   C11       1.0  0.07324  0.10544  0.98225  1.0000
  C   C12       1.0  0.08983  0.13372  0.02132  1.0000
  C   C13       1.0  0.13430  0.15205  0.01202  1.0000
  N   N2        1.0  0.16948  0.16648  0.00491  1.0000
  H   H1        1.0  0.01291  0.83556  0.97119  1.0000
  H   H2        1.0  0.95493  0.82412  0.96810  1.0000
  H   H3        1.0  0.97681  0.87400  0.94578  1.0000
  H   H4        1.0  0.97633  0.85603  0.08926  1.0000
  H   H5        1.0  0.01596  0.82787  0.05595  1.0000
  H   H6        1.0  0.95904  0.81137  0.05494  1.0000
  H   H7        1.0  0.95810  0.92479  0.06069  1.0000
  H   H8        1.0  0.94940  0.93596  0.95860  1.0000
  H   H9        1.0  0.87931  0.94278  0.00385  1.0000
  H   H10       1.0  0.90394  0.98725  0.03392  1.0000
  H   H11       1.0  0.89390  0.99237  0.97596  1.0000
  H   H12       1.0  0.02005  0.96939  0.98948  1.0000
  H   H13       1.0  0.98782  0.00150  0.02666  1.0000
  H   H14       1.0  0.97858  0.00459  0.92504  1.0000
  H   H15       1.0  0.95144  0.04036  0.96195  1.0000
  H   H16       1.0  0.04798  0.03300  0.94591  1.0000
  H   H17       1.0  0.03592  0.05882  0.02174  1.0000
  H   H18       1.0  0.99854  0.13285  0.03116  1.0000
  H   H19       1.0  0.98390  0.13317  0.97397  1.0000
  H   H20       1.0  0.96060  0.09345  0.01106  1.0000
  H   H21       1.0  0.09944  0.08141  0.97333  1.0000
  H   H22       1.0  0.06860  0.12685  0.95289  1.0000
  H   H23       1.0  0.06688  0.16136  0.02776  1.0000
  H   H24       1.0  0.09125  0.11343  0.05167  1.0000
