data_image0
_chemical_formula_structural       C3NC3N2C3ONC10O2H24
_chemical_formula_sum              "C19 N4 O3 H24"
_cell_length_a       30
_cell_length_b       30
_cell_length_c       30
_cell_angle_alpha    90
_cell_angle_beta     90
_cell_angle_gamma    90

_space_group_name_H-M_alt    "P 1"
_space_group_IT_number       1

loop_
  _space_group_symop_operation_xyz
  'x, y, z'

loop_
  _atom_site_type_symbol
  _atom_site_label
  _atom_site_symmetry_multiplicity
  _atom_site_fract_x
  _atom_site_fract_y
  _atom_site_fract_z
  _atom_site_occupancy
  C   C1        1.0  0.08091  0.04622  0.03804  1.0000
  C   C2        1.0  0.11116  0.00926  0.02028  1.0000
  C   C3        1.0  0.13922  0.02729  0.98094  1.0000
  N   N1        1.0  0.17681  0.99889  0.96988  1.0000
  C   C4        1.0  0.21844  0.00030  0.98823  1.0000
  C   C5        1.0  0.24247  0.96712  0.96768  1.0000
  C   C6        1.0  0.21256  0.94797  0.93714  1.0000
  N   N2        1.0  0.17244  0.96726  0.93831  1.0000
  N   N3        1.0  0.08986  0.96531  0.01374  1.0000
  C   C7        1.0  0.04643  0.96059  0.99013  1.0000
  C   C8        1.0  0.00584  0.97849  0.01536  1.0000
  C   C9        1.0  0.96291  0.95789  0.99828  1.0000
  O   O1        1.0  0.96087  0.93229  0.96654  1.0000
  N   N4        1.0  0.92594  0.97120  0.02225  1.0000
  C   C10       1.0  0.88097  0.95727  0.00898  1.0000
  C   C11       1.0  0.86389  0.98431  0.96852  1.0000
  C   C12       1.0  0.83987  0.02196  0.99101  1.0000
  C   C13       1.0  0.82595  0.06183  0.97247  1.0000
  C   C14       1.0  0.80259  0.09174  0.99943  1.0000
  C   C15       1.0  0.79326  0.08132  0.04406  1.0000
  C   C16       1.0  0.80708  0.04080  0.06239  1.0000
  C   C17       1.0  0.83048  0.01148  0.03551  1.0000
  C   C18       1.0  0.84732  0.96583  0.04704  1.0000
  C   C19       1.0  0.04838  0.97915  0.94283  1.0000
  O   O2        1.0  0.03664  0.01625  0.93075  1.0000
  O   O3        1.0  0.06805  0.95059  0.91420  1.0000
  H   H1        1.0  0.06074  0.03466  0.06610  1.0000
  H   H2        1.0  0.10105  0.07409  0.05041  1.0000
  H   H3        1.0  0.05911  0.05963  0.01211  1.0000
  H   H4        1.0  0.13509  0.00298  0.04736  1.0000
  H   H5        1.0  0.11956  0.03198  0.95069  1.0000
  H   H6        1.0  0.15328  0.05995  0.98943  1.0000
  H   H7        1.0  0.22719  0.02397  0.01396  1.0000
  H   H8        1.0  0.27679  0.95804  0.97378  1.0000
  H   H9        1.0  0.21827  0.92079  0.91410  1.0000
  H   H10       1.0  0.11212  0.94555  0.99660  1.0000
  H   H11       1.0  0.04155  0.92447  0.98664  1.0000
  H   H12       1.0  0.00225  0.01460  0.01193  1.0000
  H   H13       1.0  0.00853  0.97022  0.05089  1.0000
  H   H14       1.0  0.92848  0.99943  0.04060  1.0000
  H   H15       1.0  0.88282  0.92164  0.00090  1.0000
  H   H16       1.0  0.84003  0.96472  0.94916  1.0000
  H   H17       1.0  0.89075  0.99620  0.94694  1.0000
  H   H18       1.0  0.83277  0.06970  0.93784  1.0000
  H   H19       1.0  0.79126  0.12328  0.98567  1.0000
  H   H20       1.0  0.77478  0.10495  0.06442  1.0000
  H   H21       1.0  0.79939  0.03262  0.09675  1.0000
  H   H22       1.0  0.86298  0.96501  0.07999  1.0000
  H   H23       1.0  0.81968  0.94198  0.04565  1.0000
  H   H24       1.0  0.07118  0.96694  0.88622  1.0000
