data_image0
_chemical_formula_structural       C4ONC4OC2ONC4NC6OC2H25
_chemical_formula_sum              "C22 O4 N3 H25"
_cell_length_a       30
_cell_length_b       30
_cell_length_c       30
_cell_angle_alpha    90
_cell_angle_beta     90
_cell_angle_gamma    90

_space_group_name_H-M_alt    "P 1"
_space_group_IT_number       1

loop_
  _space_group_symop_operation_xyz
  'x, y, z'

loop_
  _atom_site_type_symbol
  _atom_site_label
  _atom_site_symmetry_multiplicity
  _atom_site_fract_x
  _atom_site_fract_y
  _atom_site_fract_z
  _atom_site_occupancy
  C   C1        1.0  0.92222  0.87376  0.93959  1.0000
  C   C2        1.0  0.91485  0.89429  0.98561  1.0000
  C   C3        1.0  0.86603  0.88958  0.99930  1.0000
  C   C4        1.0  0.92909  0.94333  0.98637  1.0000
  O   O1        1.0  0.93637  0.96408  0.95190  1.0000
  N   N1        1.0  0.93138  0.96021  0.02934  1.0000
  C   C5        1.0  0.94608  0.00283  0.04272  1.0000
  C   C6        1.0  0.93995  0.01417  0.08741  1.0000
  C   C7        1.0  0.95387  0.05557  0.10304  1.0000
  C   C8        1.0  0.97497  0.08556  0.07437  1.0000
  O   O2        1.0  0.98614  0.12533  0.09361  1.0000
  C   C9        1.0  0.01885  0.14901  0.06958  1.0000
  C   C10       1.0  0.01774  0.14733  0.01893  1.0000
  O   O3        1.0  0.03142  0.17893  0.99656  1.0000
  N   N2        1.0  0.00355  0.10693  0.00094  1.0000
  C   C11       1.0  0.00550  0.10168  0.95242  1.0000
  C   C12       1.0  0.05241  0.10281  0.93191  1.0000
  C   C13       1.0  0.08171  0.06219  0.94025  1.0000
  C   C14       1.0  0.09488  0.04670  0.98688  1.0000
  N   N3        1.0  0.06453  0.01059  0.97988  1.0000
  C   C15       1.0  0.06896  0.96618  0.99463  1.0000
  C   C16       1.0  0.05055  0.93103  0.97000  1.0000
  C   C17       1.0  0.05406  0.88699  0.98472  1.0000
  C   C18       1.0  0.07579  0.87755  0.02463  1.0000
  C   C19       1.0  0.09381  0.91215  0.04983  1.0000
  C   C20       1.0  0.09028  0.95617  0.03495  1.0000
  O   O4        1.0  0.05843  0.02049  0.93439  1.0000
  C   C21       1.0  0.98208  0.07508  0.02934  1.0000
  C   C22       1.0  0.96692  0.03339  0.01418  1.0000
  H   H1        1.0  0.90141  0.88989  0.91428  1.0000
  H   H2        1.0  0.95702  0.87732  0.92915  1.0000
  H   H3        1.0  0.91418  0.83816  0.93983  1.0000
  H   H4        1.0  0.93585  0.87622  0.00951  1.0000
  H   H5        1.0  0.85546  0.85466  0.99797  1.0000
  H   H6        1.0  0.86040  0.90151  0.03332  1.0000
  H   H7        1.0  0.84428  0.90892  0.97723  1.0000
  H   H8        1.0  0.92079  0.93993  0.05410  1.0000
  H   H9        1.0  0.92391  0.99135  0.11051  1.0000
  H   H10       1.0  0.94844  0.06458  0.13771  1.0000
  H   H11       1.0  0.05190  0.13768  0.08038  1.0000
  H   H12       1.0  0.01572  0.18407  0.07932  1.0000
  H   H13       1.0  0.98715  0.13027  0.93872  1.0000
  H   H14       1.0  0.98744  0.07250  0.94052  1.0000
  H   H15       1.0  0.04811  0.10613  0.89572  1.0000
  H   H16       1.0  0.07064  0.13263  0.94238  1.0000
  H   H17       1.0  0.11076  0.06354  0.91798  1.0000
  H   H18       1.0  0.12963  0.03607  0.98985  1.0000
  H   H19       1.0  0.08563  0.06797  0.01486  1.0000
  H   H20       1.0  0.03301  0.93811  0.93904  1.0000
  H   H21       1.0  0.03979  0.86024  0.96492  1.0000
  H   H22       1.0  0.07863  0.84332  0.03611  1.0000
  H   H23       1.0  0.11060  0.90497  0.08111  1.0000
  H   H24       1.0  0.10409  0.98273  0.05531  1.0000
  H   H25       1.0  0.97273  0.02333  0.98006  1.0000
