data_image0
_chemical_formula_structural       C5OC6NCNOH22
_chemical_formula_sum              "C12 O2 N2 H22"
_cell_length_a       30
_cell_length_b       30
_cell_length_c       30
_cell_angle_alpha    90
_cell_angle_beta     90
_cell_angle_gamma    90

_space_group_name_H-M_alt    "P 1"
_space_group_IT_number       1

loop_
  _space_group_symop_operation_xyz
  'x, y, z'

loop_
  _atom_site_type_symbol
  _atom_site_label
  _atom_site_symmetry_multiplicity
  _atom_site_fract_x
  _atom_site_fract_y
  _atom_site_fract_z
  _atom_site_occupancy
  C   C1        1.0  0.88494  0.04677  0.95446  1.0000
  C   C2        1.0  0.91765  0.01612  0.97966  1.0000
  C   C3        1.0  0.89070  0.97894  0.00246  1.0000
  C   C4        1.0  0.95105  0.99624  0.94530  1.0000
  C   C5        1.0  0.97826  0.95599  0.96129  1.0000
  O   O1        1.0  0.99859  0.96327  0.00345  1.0000
  C   C6        1.0  0.04133  0.98418  0.00058  1.0000
  C   C7        1.0  0.07821  0.95041  0.98921  1.0000
  C   C8        1.0  0.11125  0.95633  0.02771  1.0000
  C   C9        1.0  0.13315  0.00247  0.02601  1.0000
  C   C10       1.0  0.09539  0.03343  0.04112  1.0000
  C   C11       1.0  0.05637  0.00103  0.04689  1.0000
  N   N1        1.0  0.08005  0.96157  0.06518  1.0000
  C   C12       1.0  0.94233  0.04621  0.01325  1.0000
  N   N2        1.0  0.92057  0.05630  0.05193  1.0000
  O   O2        1.0  0.97791  0.06496  0.00535  1.0000
  H   H1        1.0  0.86106  0.06250  0.97721  1.0000
  H   H2        1.0  0.90272  0.07364  0.93723  1.0000
  H   H3        1.0  0.86586  0.02813  0.92951  1.0000
  H   H4        1.0  0.86174  0.99223  0.02035  1.0000
  H   H5        1.0  0.91080  0.96065  0.02683  1.0000
  H   H6        1.0  0.87789  0.95508  0.97794  1.0000
  H   H7        1.0  0.93289  0.98570  0.91532  1.0000
  H   H8        1.0  0.97414  0.02235  0.93421  1.0000
  H   H9        1.0  0.00305  0.94662  0.93611  1.0000
  H   H10       1.0  0.95615  0.92717  0.96499  1.0000
  H   H11       1.0  0.04045  0.01150  0.97634  1.0000
  H   H12       1.0  0.09363  0.95791  0.95699  1.0000
  H   H13       1.0  0.06524  0.91626  0.98816  1.0000
  H   H14       1.0  0.13485  0.92881  0.03108  1.0000
  H   H15       1.0  0.14517  0.01097  0.99262  1.0000
  H   H16       1.0  0.16119  0.00471  0.04933  1.0000
  H   H17       1.0  0.10413  0.04934  0.07284  1.0000
  H   H18       1.0  0.08858  0.05963  0.01667  1.0000
  H   H19       1.0  0.02945  0.01310  0.06821  1.0000
  H   H20       1.0  0.09665  0.97012  0.09356  1.0000
  H   H21       1.0  0.93872  0.07418  0.07405  1.0000
  H   H22       1.0  0.89790  0.03520  0.06508  1.0000
