data_image0
_chemical_formula_structural       C4NCONC5NOC2NC7H32
_chemical_formula_sum              "C19 N4 O2 H32"
_cell_length_a       30
_cell_length_b       30
_cell_length_c       30
_cell_angle_alpha    90
_cell_angle_beta     90
_cell_angle_gamma    90

_space_group_name_H-M_alt    "P 1"
_space_group_IT_number       1

loop_
  _space_group_symop_operation_xyz
  'x, y, z'

loop_
  _atom_site_type_symbol
  _atom_site_label
  _atom_site_symmetry_multiplicity
  _atom_site_fract_x
  _atom_site_fract_y
  _atom_site_fract_z
  _atom_site_occupancy
  C   C1        1.0  0.83026  0.11398  0.03740  1.0000
  C   C2        1.0  0.87019  0.08456  0.02548  1.0000
  C   C3        1.0  0.88771  0.09693  0.97928  1.0000
  C   C4        1.0  0.85693  0.03522  0.02730  1.0000
  N   N1        1.0  0.89585  0.00644  0.02844  1.0000
  C   C5        1.0  0.89503  0.96462  0.01042  1.0000
  O   O1        1.0  0.86207  0.95036  0.99044  1.0000
  N   N2        1.0  0.93271  0.93874  0.01846  1.0000
  C   C6        1.0  0.92722  0.89192  0.00656  1.0000
  C   C7        1.0  0.93941  0.88442  0.95766  1.0000
  C   C8        1.0  0.97689  0.91544  0.94216  1.0000
  C   C9        1.0  0.00775  0.92870  0.98101  1.0000
  C   C10       1.0  0.04963  0.95138  0.96547  1.0000
  N   N3        1.0  0.04942  0.97927  0.93054  1.0000
  O   O2        1.0  0.09277  0.99407  0.92584  1.0000
  C   C11       1.0  0.11895  0.97450  0.95710  1.0000
  C   C12       1.0  0.16691  0.98702  0.95673  1.0000
  N   N4        1.0  0.18048  0.01104  0.99748  1.0000
  C   C13       1.0  0.22920  0.01486  0.99885  1.0000
  C   C14       1.0  0.16072  0.05578  0.99894  1.0000
  C   C15       1.0  0.09321  0.94670  0.98290  1.0000
  C   C16       1.0  0.98084  0.95307  0.01922  1.0000
  C   C17       1.0  0.98891  0.00277  0.02150  1.0000
  C   C18       1.0  0.03159  0.02119  0.04166  1.0000
  C   C19       1.0  0.98853  0.02767  0.06563  1.0000
  H   H1        1.0  0.81995  0.10827  0.07205  1.0000
  H   H2        1.0  0.80163  0.10695  0.01573  1.0000
  H   H3        1.0  0.83863  0.14938  0.03402  1.0000
  H   H4        1.0  0.89674  0.09103  0.04982  1.0000
  H   H5        1.0  0.89723  0.13202  0.97796  1.0000
  H   H6        1.0  0.86230  0.09108  0.95380  1.0000
  H   H7        1.0  0.91717  0.07717  0.97052  1.0000
  H   H8        1.0  0.83809  0.02812  0.05793  1.0000
  H   H9        1.0  0.83531  0.02654  0.99909  1.0000
  H   H10       1.0  0.91361  0.00752  0.05695  1.0000
  H   H11       1.0  0.94883  0.87214  0.02841  1.0000
  H   H12       1.0  0.89308  0.88054  0.01293  1.0000
  H   H13       1.0  0.94928  0.84953  0.95322  1.0000
  H   H14       1.0  0.91025  0.88984  0.93627  1.0000
  H   H15       1.0  0.99564  0.89899  0.91543  1.0000
  H   H16       1.0  0.96227  0.94556  0.92737  1.0000
  H   H17       1.0  0.01902  0.89686  0.99544  1.0000
  H   H18       1.0  0.17466  0.00688  0.92675  1.0000
  H   H19       1.0  0.18607  0.95596  0.95402  1.0000
  H   H20       1.0  0.23993  0.03240  0.02905  1.0000
  H   H21       1.0  0.24471  0.98199  0.99967  1.0000
  H   H22       1.0  0.24235  0.03314  0.96996  1.0000
  H   H23       1.0  0.16997  0.07607  0.96990  1.0000
  H   H24       1.0  0.12425  0.05415  0.00049  1.0000
  H   H25       1.0  0.17119  0.07330  0.02927  1.0000
  H   H26       1.0  0.10420  0.92689  0.01084  1.0000
  H   H27       1.0  0.99340  0.93889  0.05061  1.0000
  H   H28       1.0  0.97661  0.01976  0.99188  1.0000
  H   H29       1.0  0.05550  0.99866  0.05683  1.0000
  H   H30       1.0  0.04660  0.04969  0.02480  1.0000
  H   H31       1.0  0.98351  0.00904  0.09625  1.0000
  H   H32       1.0  0.97485  0.06100  0.06627  1.0000
