data_image0
_chemical_formula_structural       C3N2C7NC3OC3OC2H29
_chemical_formula_sum              "C18 N3 O2 H29"
_cell_length_a       30
_cell_length_b       30
_cell_length_c       30
_cell_angle_alpha    90
_cell_angle_beta     90
_cell_angle_gamma    90

_space_group_name_H-M_alt    "P 1"
_space_group_IT_number       1

loop_
  _space_group_symop_operation_xyz
  'x, y, z'

loop_
  _atom_site_type_symbol
  _atom_site_label
  _atom_site_symmetry_multiplicity
  _atom_site_fract_x
  _atom_site_fract_y
  _atom_site_fract_z
  _atom_site_occupancy
  C   C1        1.0  0.12730  0.95984  0.95274  1.0000
  C   C2        1.0  0.13400  0.98918  0.99382  1.0000
  C   C3        1.0  0.18342  0.99928  0.00147  1.0000
  N   N1        1.0  0.10700  0.02962  0.99064  1.0000
  N   N2        1.0  0.12160  0.06362  0.96498  1.0000
  C   C4        1.0  0.09031  0.09482  0.96948  1.0000
  C   C5        1.0  0.05545  0.08102  0.99733  1.0000
  C   C6        1.0  0.06637  0.03815  0.01031  1.0000
  C   C7        1.0  0.04204  0.00576  0.03938  1.0000
  C   C8        1.0  0.05602  0.01076  0.08842  1.0000
  C   C9        1.0  0.01349  0.02314  0.11306  1.0000
  C   C10       1.0  0.97716  0.00382  0.08375  1.0000
  N   N3        1.0  0.99368  0.01444  0.03922  1.0000
  C   C11       1.0  0.96956  0.99476  0.00136  1.0000
  C   C12       1.0  0.95969  0.94485  0.00428  1.0000
  C   C13       1.0  0.93891  0.92870  0.96073  1.0000
  O   O1        1.0  0.91542  0.96256  0.93701  1.0000
  C   C14       1.0  0.89253  0.99449  0.96426  1.0000
  C   C15       1.0  0.86635  0.02456  0.93294  1.0000
  C   C16       1.0  0.82619  0.99597  0.92204  1.0000
  O   O2        1.0  0.81595  0.97115  0.96157  1.0000
  C   C17       1.0  0.85397  0.97362  0.99085  1.0000
  C   C18       1.0  0.92607  0.02072  0.99276  1.0000
  H   H1        1.0  0.14577  0.92853  0.95604  1.0000
  H   H2        1.0  0.13877  0.97657  0.92237  1.0000
  H   H3        1.0  0.09201  0.95163  0.94817  1.0000
  H   H4        1.0  0.12230  0.97088  0.02316  1.0000
  H   H5        1.0  0.20202  0.96844  0.00747  1.0000
  H   H6        1.0  0.18795  0.02097  0.03049  1.0000
  H   H7        1.0  0.19848  0.01589  0.97265  1.0000
  H   H8        1.0  0.09422  0.12622  0.95218  1.0000
  H   H9        1.0  0.02580  0.09928  0.00658  1.0000
  H   H10       1.0  0.04871  0.97143  0.02880  1.0000
  H   H11       1.0  0.06820  0.97860  0.10091  1.0000
  H   H12       1.0  0.08220  0.03554  0.09426  1.0000
  H   H13       1.0  0.01277  0.00973  0.14695  1.0000
  H   H14       1.0  0.01034  0.05952  0.11509  1.0000
  H   H15       1.0  0.97473  0.96784  0.08958  1.0000
  H   H16       1.0  0.94492  0.01922  0.09095  1.0000
  H   H17       1.0  0.99010  0.99984  0.97141  1.0000
  H   H18       1.0  0.98958  0.92514  0.01145  1.0000
  H   H19       1.0  0.93625  0.93827  0.03155  1.0000
  H   H20       1.0  0.96519  0.91677  0.93835  1.0000
  H   H21       1.0  0.91666  0.90037  0.96666  1.0000
  H   H22       1.0  0.85540  0.05485  0.95025  1.0000
  H   H23       1.0  0.88453  0.03410  0.90279  1.0000
  H   H24       1.0  0.83350  0.97215  0.89535  1.0000
  H   H25       1.0  0.79722  0.01581  0.91222  1.0000
  H   H26       1.0  0.84398  0.99453  0.01907  1.0000
  H   H27       1.0  0.86069  0.94004  0.00317  1.0000
  H   H28       1.0  0.93517  0.05189  0.97579  1.0000
  H   H29       1.0  0.91003  0.03113  0.02390  1.0000
