data_image0
_chemical_formula_structural       C4OCNCOC2SCNC4ONH19
_chemical_formula_sum              "C13 O3 N3 S1 H19"
_cell_length_a       30
_cell_length_b       30
_cell_length_c       30
_cell_angle_alpha    90
_cell_angle_beta     90
_cell_angle_gamma    90

_space_group_name_H-M_alt    "P 1"
_space_group_IT_number       1

loop_
  _space_group_symop_operation_xyz
  'x, y, z'

loop_
  _atom_site_type_symbol
  _atom_site_label
  _atom_site_symmetry_multiplicity
  _atom_site_fract_x
  _atom_site_fract_y
  _atom_site_fract_z
  _atom_site_occupancy
  C   C1        1.0  0.16430  0.00148  0.99728  1.0000
  C   C2        1.0  0.11408  0.99961  0.00614  1.0000
  C   C3        1.0  0.09344  0.04623  0.01375  1.0000
  C   C4        1.0  0.11218  0.07124  0.05387  1.0000
  O   O1        1.0  0.15403  0.09058  0.04312  1.0000
  C   C5        1.0  0.09103  0.97589  0.96686  1.0000
  N   N1        1.0  0.04458  0.96660  0.97544  1.0000
  C   C6        1.0  0.03021  0.93056  0.99986  1.0000
  O   O2        1.0  0.05472  0.90150  0.01485  1.0000
  C   C7        1.0  0.98186  0.93068  0.00648  1.0000
  C   C8        1.0  0.95829  0.89771  0.02831  1.0000
  S   S1        1.0  0.90266  0.91051  0.02861  1.0000
  C   C9        1.0  0.91360  0.95891  0.00012  1.0000
  N   N2        1.0  0.87829  0.98647  0.98954  1.0000
  C   C10       1.0  0.83148  0.97947  0.99768  1.0000
  C   C11       1.0  0.81081  0.02483  0.98986  1.0000
  C   C12       1.0  0.84046  0.04520  0.95430  1.0000
  C   C13       1.0  0.88553  0.02469  0.96372  1.0000
  O   O3        1.0  0.92022  0.04012  0.94901  1.0000
  N   N3        1.0  0.95568  0.96568  0.99063  1.0000
  H   H1        1.0  0.17727  0.96838  0.98895  1.0000
  H   H2        1.0  0.18255  0.01280  0.02675  1.0000
  H   H3        1.0  0.17203  0.02391  0.96954  1.0000
  H   H4        1.0  0.10883  0.97973  0.03642  1.0000
  H   H5        1.0  0.05750  0.04232  0.01916  1.0000
  H   H6        1.0  0.09779  0.06646  0.98359  1.0000
  H   H7        1.0  0.11614  0.04919  0.08266  1.0000
  H   H8        1.0  0.08957  0.09838  0.06302  1.0000
  H   H9        1.0  0.16436  0.10615  0.06960  1.0000
  H   H10       1.0  0.10766  0.94411  0.95986  1.0000
  H   H11       1.0  0.09263  0.99626  0.93659  1.0000
  H   H12       1.0  0.02066  0.98902  0.96651  1.0000
  H   H13       1.0  0.97108  0.86760  0.04345  1.0000
  H   H14       1.0  0.82519  0.96800  0.03172  1.0000
  H   H15       1.0  0.81901  0.95491  0.97369  1.0000
  H   H16       1.0  0.77578  0.02297  0.97993  1.0000
  H   H17       1.0  0.81283  0.04485  0.02040  1.0000
  H   H18       1.0  0.82990  0.03552  0.92075  1.0000
  H   H19       1.0  0.84179  0.08149  0.95710  1.0000
