data_image0
_chemical_formula_structural       C7ONCOC6NC4NH19
_chemical_formula_sum              "C18 O2 N3 H19"
_cell_length_a       30
_cell_length_b       30
_cell_length_c       30
_cell_angle_alpha    90
_cell_angle_beta     90
_cell_angle_gamma    90

_space_group_name_H-M_alt    "P 1"
_space_group_IT_number       1

loop_
  _space_group_symop_operation_xyz
  'x, y, z'

loop_
  _atom_site_type_symbol
  _atom_site_label
  _atom_site_symmetry_multiplicity
  _atom_site_fract_x
  _atom_site_fract_y
  _atom_site_fract_z
  _atom_site_occupancy
  C   C1        1.0  0.92452  0.90419  0.93339  1.0000
  C   C2        1.0  0.92001  0.93355  0.97484  1.0000
  C   C3        1.0  0.87672  0.96097  0.97227  1.0000
  C   C4        1.0  0.86902  0.98830  0.01295  1.0000
  C   C5        1.0  0.85918  0.97799  0.05666  1.0000
  C   C6        1.0  0.85554  0.01910  0.07951  1.0000
  C   C7        1.0  0.86321  0.05179  0.04833  1.0000
  O   O1        1.0  0.87163  0.03342  0.00783  1.0000
  N   N1        1.0  0.95901  0.96219  0.97942  1.0000
  C   C8        1.0  0.99886  0.94676  0.99668  1.0000
  O   O2        1.0  0.00356  0.90838  0.01010  1.0000
  C   C9        1.0  0.03515  0.97952  0.99641  1.0000
  C   C10       1.0  0.03257  0.02515  0.00354  1.0000
  C   C11       1.0  0.99883  0.05688  0.01434  1.0000
  C   C12       1.0  0.00970  0.10028  0.01828  1.0000
  C   C13       1.0  0.05520  0.11581  0.01217  1.0000
  C   C14       1.0  0.08721  0.08587  0.00302  1.0000
  N   N2        1.0  0.07593  0.04093  0.99902  1.0000
  C   C15       1.0  0.10243  0.00449  0.99046  1.0000
  C   C16       1.0  0.15382  0.00566  0.98312  1.0000
  C   C17       1.0  0.18157  0.96740  0.00011  1.0000
  C   C18       1.0  0.18394  0.01190  0.02282  1.0000
  N   N3        1.0  0.07911  0.96743  0.98870  1.0000
  H   H1        1.0  0.95444  0.88335  0.93516  1.0000
  H   H2        1.0  0.92708  0.92446  0.90311  1.0000
  H   H3        1.0  0.89571  0.88205  0.92991  1.0000
  H   H4        1.0  0.91880  0.91171  0.00416  1.0000
  H   H5        1.0  0.84818  0.93853  0.96783  1.0000
  H   H6        1.0  0.87758  0.98282  0.94293  1.0000
  H   H7        1.0  0.85523  0.94487  0.07034  1.0000
  H   H8        1.0  0.84813  0.02428  0.11438  1.0000
  H   H9        1.0  0.86388  0.08780  0.04956  1.0000
  H   H10       1.0  0.95935  0.99177  0.96323  1.0000
  H   H11       1.0  0.96478  0.04602  0.02003  1.0000
  H   H12       1.0  0.98451  0.12485  0.02678  1.0000
  H   H13       1.0  0.06234  0.15107  0.01565  1.0000
  H   H14       1.0  0.12185  0.09489  0.99856  1.0000
  H   H15       1.0  0.16398  0.02035  0.95169  1.0000
  H   H16       1.0  0.16467  0.94035  0.01716  1.0000
  H   H17       1.0  0.20968  0.95683  0.98006  1.0000
  H   H18       1.0  0.21396  0.03149  0.01842  1.0000
  H   H19       1.0  0.16914  0.01456  0.05569  1.0000
