data_image0
_chemical_formula_structural       C3NC6NC2OCH24
_chemical_formula_sum              "C12 N2 O1 H24"
_cell_length_a       30
_cell_length_b       30
_cell_length_c       30
_cell_angle_alpha    90
_cell_angle_beta     90
_cell_angle_gamma    90

_space_group_name_H-M_alt    "P 1"
_space_group_IT_number       1

loop_
  _space_group_symop_operation_xyz
  'x, y, z'

loop_
  _atom_site_type_symbol
  _atom_site_label
  _atom_site_symmetry_multiplicity
  _atom_site_fract_x
  _atom_site_fract_y
  _atom_site_fract_z
  _atom_site_occupancy
  C   C1        1.0  0.85484  0.98519  0.97329  1.0000
  C   C2        1.0  0.89093  0.00959  0.00016  1.0000
  C   C3        1.0  0.88550  0.05988  0.99227  1.0000
  N   N1        1.0  0.93597  0.99444  0.98767  1.0000
  C   C4        1.0  0.94334  0.94663  0.99415  1.0000
  C   C5        1.0  0.99377  0.94123  0.99190  1.0000
  C   C6        1.0  0.01776  0.91498  0.02897  1.0000
  C   C7        1.0  0.02227  0.95858  0.05550  1.0000
  C   C8        1.0  0.01244  0.98507  0.01170  1.0000
  C   C9        1.0  0.05305  0.00385  0.98706  1.0000
  N   N2        1.0  0.07424  0.03943  0.01316  1.0000
  C   C10       1.0  0.11459  0.05672  0.99163  1.0000
  C   C11       1.0  0.15530  0.02599  0.99536  1.0000
  O   O1        1.0  0.19310  0.04617  0.97475  1.0000
  C   C12       1.0  0.97190  0.01642  0.01292  1.0000
  H   H1        1.0  0.85399  0.94955  0.98109  1.0000
  H   H2        1.0  0.86021  0.98891  0.93735  1.0000
  H   H3        1.0  0.82173  0.99850  0.98105  1.0000
  H   H4        1.0  0.88495  0.00298  0.03567  1.0000
  H   H5        1.0  0.89269  0.06874  0.95757  1.0000
  H   H6        1.0  0.85134  0.07050  0.99965  1.0000
  H   H7        1.0  0.90754  0.07942  0.01381  1.0000
  H   H8        1.0  0.92734  0.92678  0.96805  1.0000
  H   H9        1.0  0.93050  0.93558  0.02658  1.0000
  H   H10       1.0  0.00536  0.93340  0.95811  1.0000
  H   H11       1.0  0.04984  0.90107  0.01840  1.0000
  H   H12       1.0  0.99839  0.88865  0.04509  1.0000
  H   H13       1.0  0.05505  0.96382  0.07060  1.0000
  H   H14       1.0  0.99698  0.96222  0.08162  1.0000
  H   H15       1.0  0.07697  0.97686  0.98128  1.0000
  H   H16       1.0  0.04297  0.01654  0.95427  1.0000
  H   H17       1.0  0.05227  0.06520  0.01641  1.0000
  H   H18       1.0  0.10817  0.06515  0.95662  1.0000
  H   H19       1.0  0.12321  0.08848  0.00760  1.0000
  H   H20       1.0  0.14971  0.99377  0.97924  1.0000
  H   H21       1.0  0.16359  0.01993  0.03037  1.0000
  H   H22       1.0  0.18673  0.04846  0.94306  1.0000
  H   H23       1.0  0.96207  0.02266  0.04760  1.0000
  H   H24       1.0  0.97941  0.04868  0.99758  1.0000
