data_image0
_chemical_formula_structural       C6NCONC6OH24
_chemical_formula_sum              "C13 N2 O2 H24"
_cell_length_a       30
_cell_length_b       30
_cell_length_c       30
_cell_angle_alpha    90
_cell_angle_beta     90
_cell_angle_gamma    90

_space_group_name_H-M_alt    "P 1"
_space_group_IT_number       1

loop_
  _space_group_symop_operation_xyz
  'x, y, z'

loop_
  _atom_site_type_symbol
  _atom_site_label
  _atom_site_symmetry_multiplicity
  _atom_site_fract_x
  _atom_site_fract_y
  _atom_site_fract_z
  _atom_site_occupancy
  C   C1        1.0  0.95628  0.04387  0.93449  1.0000
  C   C2        1.0  0.96010  0.05614  0.98362  1.0000
  C   C3        1.0  0.92323  0.03873  0.01483  1.0000
  C   C4        1.0  0.92299  0.98953  0.02823  1.0000
  C   C5        1.0  0.89986  0.96003  0.99515  1.0000
  C   C6        1.0  0.84989  0.95483  0.99554  1.0000
  N   N1        1.0  0.87898  0.91871  0.01034  1.0000
  C   C7        1.0  0.00689  0.05505  0.00453  1.0000
  O   O1        1.0  0.01964  0.08924  0.02388  1.0000
  N   N2        1.0  0.03377  0.01723  0.00412  1.0000
  C   C8        1.0  0.02796  0.97943  0.97384  1.0000
  C   C9        1.0  0.04715  0.93591  0.99184  1.0000
  C   C10       1.0  0.09520  0.94128  0.00698  1.0000
  C   C11       1.0  0.09827  0.97897  0.04081  1.0000
  C   C12       1.0  0.07912  0.02297  0.02279  1.0000
  C   C13       1.0  0.11074  0.04596  0.98920  1.0000
  O   O2        1.0  0.15226  0.05725  0.00933  1.0000
  H   H1        1.0  0.98612  0.05416  0.91614  1.0000
  H   H2        1.0  0.95103  0.00852  0.92829  1.0000
  H   H3        1.0  0.92771  0.06110  0.91956  1.0000
  H   H4        1.0  0.95353  0.09236  0.98258  1.0000
  H   H5        1.0  0.89067  0.04768  0.00073  1.0000
  H   H6        1.0  0.92615  0.05782  0.04598  1.0000
  H   H7        1.0  0.90545  0.98719  0.06031  1.0000
  H   H8        1.0  0.95664  0.97726  0.03479  1.0000
  H   H9        1.0  0.91696  0.95714  0.96361  1.0000
  H   H10       1.0  0.83046  0.97143  0.02102  1.0000
  H   H11       1.0  0.83309  0.94965  0.96400  1.0000
  H   H12       1.0  0.87897  0.91635  0.04433  1.0000
  H   H13       1.0  0.99284  0.97376  0.96742  1.0000
  H   H14       1.0  0.04371  0.98826  0.94208  1.0000
  H   H15       1.0  0.02690  0.92467  0.02016  1.0000
  H   H16       1.0  0.04496  0.90994  0.96625  1.0000
  H   H17       1.0  0.11676  0.94803  0.97829  1.0000
  H   H18       1.0  0.10695  0.91016  0.02206  1.0000
  H   H19       1.0  0.13291  0.98326  0.05157  1.0000
  H   H20       1.0  0.07930  0.96934  0.07061  1.0000
  H   H21       1.0  0.07681  0.04508  0.05189  1.0000
  H   H22       1.0  0.11765  0.02439  0.96062  1.0000
  H   H23       1.0  0.09603  0.07666  0.97601  1.0000
  H   H24       1.0  0.14605  0.08066  0.03096  1.0000
