data_image0
_chemical_formula_structural       C3OC2NCONC4NC3H27
_chemical_formula_sum              "C13 O2 N3 H27"
_cell_length_a       30
_cell_length_b       30
_cell_length_c       30
_cell_angle_alpha    90
_cell_angle_beta     90
_cell_angle_gamma    90

_space_group_name_H-M_alt    "P 1"
_space_group_IT_number       1

loop_
  _space_group_symop_operation_xyz
  'x, y, z'

loop_
  _atom_site_type_symbol
  _atom_site_label
  _atom_site_symmetry_multiplicity
  _atom_site_fract_x
  _atom_site_fract_y
  _atom_site_fract_z
  _atom_site_occupancy
  C   C1        1.0  0.19037  0.03150  0.97897  1.0000
  C   C2        1.0  0.15058  0.99996  0.98495  1.0000
  C   C3        1.0  0.16149  0.96452  0.02046  1.0000
  O   O1        1.0  0.17162  0.98382  0.06250  1.0000
  C   C4        1.0  0.10675  0.02511  0.99620  1.0000
  C   C5        1.0  0.09768  0.06431  0.96467  1.0000
  N   N1        1.0  0.06886  0.99439  0.99425  1.0000
  C   C6        1.0  0.03037  0.00254  0.01760  1.0000
  O   O2        1.0  0.02529  0.03364  0.04348  1.0000
  N   N2        1.0  0.99853  0.97074  0.00927  1.0000
  C   C7        1.0  0.95419  0.97487  0.02812  1.0000
  C   C8        1.0  0.92865  0.93063  0.02730  1.0000
  C   C9        1.0  0.88676  0.93938  0.99984  1.0000
  C   C10       1.0  0.87794  0.98941  0.00580  1.0000
  N   N3        1.0  0.84655  0.00791  0.97288  1.0000
  C   C11       1.0  0.84210  0.05639  0.97757  1.0000
  C   C12       1.0  0.80236  0.98734  0.97658  1.0000
  C   C13       1.0  0.92539  0.00810  0.00209  1.0000
  H   H1        1.0  0.18674  0.05165  0.94877  1.0000
  H   H2        1.0  0.22146  0.01266  0.97547  1.0000
  H   H3        1.0  0.19394  0.05415  0.00736  1.0000
  H   H4        1.0  0.14583  0.98220  0.95327  1.0000
  H   H5        1.0  0.19012  0.94436  0.01007  1.0000
  H   H6        1.0  0.13349  0.94160  0.02512  1.0000
  H   H7        1.0  0.20069  0.99793  0.06041  1.0000
  H   H8        1.0  0.10871  0.03843  0.03021  1.0000
  H   H9        1.0  0.12285  0.09047  0.96824  1.0000
  H   H10       1.0  0.06527  0.07964  0.97163  1.0000
  H   H11       1.0  0.09727  0.05330  0.92985  1.0000
  H   H12       1.0  0.06621  0.97463  0.96725  1.0000
  H   H13       1.0  0.00162  0.95326  0.98078  1.0000
  H   H14       1.0  0.95752  0.98609  0.06278  1.0000
  H   H15       1.0  0.91917  0.92153  0.06142  1.0000
  H   H16       1.0  0.94792  0.90281  0.01362  1.0000
  H   H17       1.0  0.85903  0.91858  0.01122  1.0000
  H   H18       1.0  0.89322  0.93141  0.96472  1.0000
  H   H19       1.0  0.86551  0.99535  0.03977  1.0000
  H   H20       1.0  0.87366  0.07332  0.97057  1.0000
  H   H21       1.0  0.83086  0.06597  0.01098  1.0000
  H   H22       1.0  0.81818  0.06951  0.95326  1.0000
  H   H23       1.0  0.80367  0.95168  0.96897  1.0000
  H   H24       1.0  0.77933  0.00186  0.95220  1.0000
  H   H25       1.0  0.78795  0.99164  0.00987  1.0000
  H   H26       1.0  0.92835  0.04172  0.01602  1.0000
  H   H27       1.0  0.93592  0.00971  0.96705  1.0000
