data_image0
_chemical_formula_structural       C7N2C2OCNC9H23
_chemical_formula_sum              "C19 N3 O1 H23"
_cell_length_a       30
_cell_length_b       30
_cell_length_c       30
_cell_angle_alpha    90
_cell_angle_beta     90
_cell_angle_gamma    90

_space_group_name_H-M_alt    "P 1"
_space_group_IT_number       1

loop_
  _space_group_symop_operation_xyz
  'x, y, z'

loop_
  _atom_site_type_symbol
  _atom_site_label
  _atom_site_symmetry_multiplicity
  _atom_site_fract_x
  _atom_site_fract_y
  _atom_site_fract_z
  _atom_site_occupancy
  C   C1        1.0  0.12471  0.91241  0.00574  1.0000
  C   C2        1.0  0.09879  0.93192  0.96621  1.0000
  C   C3        1.0  0.11080  0.97958  0.95292  1.0000
  C   C4        1.0  0.12410  0.01152  0.98396  1.0000
  C   C5        1.0  0.13321  0.05474  0.96969  1.0000
  C   C6        1.0  0.12912  0.06510  0.92480  1.0000
  C   C7        1.0  0.11561  0.03174  0.89599  1.0000
  N   N1        1.0  0.10634  0.98961  0.90890  1.0000
  N   N2        1.0  0.05000  0.92574  0.96991  1.0000
  C   C8        1.0  0.02790  0.90741  0.93078  1.0000
  C   C9        1.0  0.02690  0.94828  0.00371  1.0000
  O   O1        1.0  0.04645  0.96446  0.03603  1.0000
  C   C10       1.0  0.97574  0.95146  0.99841  1.0000
  N   N3        1.0  0.95547  0.98742  0.02560  1.0000
  C   C11       1.0  0.96916  0.03180  0.00963  1.0000
  C   C12       1.0  0.95167  0.06845  0.04075  1.0000
  C   C13       1.0  0.90256  0.06373  0.05028  1.0000
  C   C14       1.0  0.87823  0.09974  0.06745  1.0000
  C   C15       1.0  0.83304  0.09500  0.07733  1.0000
  C   C16       1.0  0.81189  0.05421  0.07048  1.0000
  C   C17       1.0  0.83597  0.01810  0.05382  1.0000
  C   C18       1.0  0.88152  0.02238  0.04382  1.0000
  C   C19       1.0  0.90648  0.98340  0.02373  1.0000
  H   H1        1.0  0.16067  0.91463  0.99973  1.0000
  H   H2        1.0  0.11800  0.92915  0.03737  1.0000
  H   H3        1.0  0.11627  0.87713  0.01020  1.0000
  H   H4        1.0  0.10955  0.91127  0.93797  1.0000
  H   H5        1.0  0.12682  0.00335  0.01914  1.0000
  H   H6        1.0  0.14292  0.08011  0.99365  1.0000
  H   H7        1.0  0.13583  0.09844  0.91266  1.0000
  H   H8        1.0  0.11113  0.03840  0.86071  1.0000
  H   H9        1.0  0.02365  0.93382  0.90607  1.0000
  H   H10       1.0  0.99534  0.89368  0.93943  1.0000
  H   H11       1.0  0.04775  0.88022  0.91667  1.0000
  H   H12       1.0  0.96249  0.91910  0.00901  1.0000
  H   H13       1.0  0.96705  0.95693  0.96337  1.0000
  H   H14       1.0  0.95702  0.03748  0.97554  1.0000
  H   H15       1.0  0.00553  0.03495  0.00854  1.0000
  H   H16       1.0  0.96962  0.06721  0.07261  1.0000
  H   H17       1.0  0.95827  0.10099  0.02544  1.0000
  H   H18       1.0  0.89446  0.13164  0.07326  1.0000
  H   H19       1.0  0.81435  0.12309  0.09053  1.0000
  H   H20       1.0  0.77667  0.05054  0.07824  1.0000
  H   H21       1.0  0.81901  0.98647  0.04853  1.0000
  H   H22       1.0  0.89671  0.95304  0.04163  1.0000
  H   H23       1.0  0.89524  0.98014  0.98906  1.0000
