data_image0
_chemical_formula_structural       C3N2C4ONC2SOC10SH29
_chemical_formula_sum              "C19 N3 O2 S2 H29"
_cell_length_a       30
_cell_length_b       30
_cell_length_c       30
_cell_angle_alpha    90
_cell_angle_beta     90
_cell_angle_gamma    90

_space_group_name_H-M_alt    "P 1"
_space_group_IT_number       1

loop_
  _space_group_symop_operation_xyz
  'x, y, z'

loop_
  _atom_site_type_symbol
  _atom_site_label
  _atom_site_symmetry_multiplicity
  _atom_site_fract_x
  _atom_site_fract_y
  _atom_site_fract_z
  _atom_site_occupancy
  C   C1        1.0  0.15875  0.92917  0.97365  1.0000
  C   C2        1.0  0.15226  0.95719  0.01595  1.0000
  C   C3        1.0  0.17700  0.93618  0.05548  1.0000
  N   N1        1.0  0.10463  0.96596  0.02427  1.0000
  N   N2        1.0  0.07971  0.92596  0.03447  1.0000
  C   C4        1.0  0.03706  0.92620  0.02029  1.0000
  C   C5        1.0  0.00706  0.95364  0.00129  1.0000
  C   C6        1.0  0.00564  0.99648  0.98763  1.0000
  C   C7        1.0  0.96019  0.00275  0.96623  1.0000
  O   O1        1.0  0.95456  0.99692  0.92598  1.0000
  N   N3        1.0  0.92554  0.01595  0.99464  1.0000
  C   C8        1.0  0.92926  0.01947  0.04336  1.0000
  C   C9        1.0  0.90333  0.98250  0.06651  1.0000
  S   S1        1.0  0.84409  0.98789  0.05431  1.0000
  O   O2        1.0  0.82037  0.94715  0.07099  1.0000
  C   C10       1.0  0.84800  0.98466  0.99266  1.0000
  C   C11       1.0  0.80128  0.99512  0.97418  1.0000
  C   C12       1.0  0.86152  0.93782  0.97728  1.0000
  C   C13       1.0  0.88071  0.02085  0.97631  1.0000
  C   C14       1.0  0.03158  0.03389  0.98812  1.0000
  C   C15       1.0  0.06919  0.04116  0.01249  1.0000
  C   C16       1.0  0.09883  0.08204  0.00741  1.0000
  C   C17       1.0  0.08974  0.11005  0.96626  1.0000
  C   C18       1.0  0.04015  0.11745  0.96257  1.0000
  C   C19       1.0  0.01635  0.07275  0.95763  1.0000
  S   S2        1.0  0.08819  0.00758  0.05614  1.0000
  H   H1        1.0  0.14605  0.89517  0.97760  1.0000
  H   H2        1.0  0.19422  0.92678  0.96530  1.0000
  H   H3        1.0  0.14179  0.94447  0.94515  1.0000
  H   H4        1.0  0.16844  0.98933  0.00902  1.0000
  H   H5        1.0  0.17399  0.95671  0.08551  1.0000
  H   H6        1.0  0.21261  0.93312  0.04794  1.0000
  H   H7        1.0  0.16453  0.90275  0.06322  1.0000
  H   H8        1.0  0.02168  0.89351  0.02567  1.0000
  H   H9        1.0  0.97646  0.93478  0.99475  1.0000
  H   H10       1.0  0.91623  0.05233  0.05274  1.0000
  H   H11       1.0  0.96387  0.01860  0.05450  1.0000
  H   H12       1.0  0.91477  0.94936  0.05664  1.0000
  H   H13       1.0  0.90699  0.98537  0.10269  1.0000
  H   H14       1.0  0.77658  0.97076  0.98565  1.0000
  H   H15       1.0  0.80122  0.99458  0.93765  1.0000
  H   H16       1.0  0.78975  0.02814  0.98477  1.0000
  H   H17       1.0  0.89429  0.92776  0.98957  1.0000
  H   H18       1.0  0.86273  0.93608  0.94080  1.0000
  H   H19       1.0  0.83761  0.91263  0.98863  1.0000
  H   H20       1.0  0.88183  0.02086  0.93980  1.0000
  H   H21       1.0  0.86906  0.05413  0.98617  1.0000
  H   H22       1.0  0.13402  0.07203  0.00625  1.0000
  H   H23       1.0  0.09481  0.10311  0.03710  1.0000
  H   H24       1.0  0.10230  0.09313  0.93637  1.0000
  H   H25       1.0  0.10729  0.14198  0.96874  1.0000
  H   H26       1.0  0.02781  0.13490  0.99226  1.0000
  H   H27       1.0  0.03258  0.13871  0.93384  1.0000
  H   H28       1.0  0.02045  0.06179  0.92291  1.0000
  H   H29       1.0  0.98098  0.08036  0.96269  1.0000
