data_image0
_chemical_formula_structural       C3SC2ON2CONC7OH25
_chemical_formula_sum              "C13 S1 O3 N3 H25"
_cell_length_a       30
_cell_length_b       30
_cell_length_c       30
_cell_angle_alpha    90
_cell_angle_beta     90
_cell_angle_gamma    90

_space_group_name_H-M_alt    "P 1"
_space_group_IT_number       1

loop_
  _space_group_symop_operation_xyz
  'x, y, z'

loop_
  _atom_site_type_symbol
  _atom_site_label
  _atom_site_symmetry_multiplicity
  _atom_site_fract_x
  _atom_site_fract_y
  _atom_site_fract_z
  _atom_site_occupancy
  C   C1        1.0  0.22150  0.04299  0.99533  1.0000
  C   C2        1.0  0.19517  0.00211  0.98049  1.0000
  C   C3        1.0  0.22414  0.97195  0.95142  1.0000
  S   S1        1.0  0.17579  0.96925  0.02841  1.0000
  C   C4        1.0  0.13560  0.00745  0.05308  1.0000
  C   C5        1.0  0.09821  0.01859  0.02103  1.0000
  O   O1        1.0  0.09504  0.05491  0.00216  1.0000
  N   N1        1.0  0.06779  0.98457  0.01447  1.0000
  N   N2        1.0  0.02720  0.99627  0.99338  1.0000
  C   C6        1.0  0.98896  0.98585  0.01688  1.0000
  O   O2        1.0  0.98911  0.96320  0.05089  1.0000
  N   N3        1.0  0.95162  0.00365  0.99719  1.0000
  C   C7        1.0  0.90727  0.99409  0.01467  1.0000
  C   C8        1.0  0.89160  0.94711  0.00145  1.0000
  C   C9        1.0  0.84162  0.93973  0.00870  1.0000
  C   C10       1.0  0.82170  0.97290  0.04154  1.0000
  C   C11       1.0  0.82828  0.02134  0.02670  1.0000
  C   C12       1.0  0.87286  0.03016  0.00219  1.0000
  C   C13       1.0  0.86555  0.03460  0.95163  1.0000
  O   O3        1.0  0.83792  0.07216  0.94273  1.0000
  H   H1        1.0  0.24997  0.03392  0.01633  1.0000
  H   H2        1.0  0.20069  0.06660  0.01375  1.0000
  H   H3        1.0  0.23457  0.06088  0.96628  1.0000
  H   H4        1.0  0.16633  0.01247  0.96069  1.0000
  H   H5        1.0  0.25381  0.96023  0.96923  1.0000
  H   H6        1.0  0.20548  0.94282  0.93971  1.0000
  H   H7        1.0  0.23558  0.99004  0.92181  1.0000
  H   H8        1.0  0.12136  0.99170  0.08278  1.0000
  H   H9        1.0  0.15190  0.03810  0.06417  1.0000
  H   H10       1.0  0.06509  0.95962  0.03747  1.0000
  H   H11       1.0  0.02790  0.02739  0.97970  1.0000
  H   H12       1.0  0.95479  0.00842  0.96403  1.0000
  H   H13       1.0  0.91062  0.99466  0.05116  1.0000
  H   H14       1.0  0.91031  0.92245  0.02095  1.0000
  H   H15       1.0  0.89969  0.94009  0.96646  1.0000
  H   H16       1.0  0.83590  0.90559  0.02038  1.0000
  H   H17       1.0  0.82411  0.94255  0.97673  1.0000
  H   H18       1.0  0.78604  0.96628  0.04598  1.0000
  H   H19       1.0  0.83716  0.96806  0.07434  1.0000
  H   H20       1.0  0.79990  0.03140  0.00599  1.0000
  H   H21       1.0  0.82670  0.04251  0.05650  1.0000
  H   H22       1.0  0.88513  0.06267  0.01384  1.0000
  H   H23       1.0  0.84948  0.00510  0.93749  1.0000
  H   H24       1.0  0.89708  0.04005  0.93417  1.0000
  H   H25       1.0  0.83349  0.07355  0.91064  1.0000
