data_image0
_chemical_formula_structural       C4OC14OCNClCH28
_chemical_formula_sum              "C20 O2 N1 Cl1 H28"
_cell_length_a       30
_cell_length_b       30
_cell_length_c       30
_cell_angle_alpha    90
_cell_angle_beta     90
_cell_angle_gamma    90

_space_group_name_H-M_alt    "P 1"
_space_group_IT_number       1

loop_
  _space_group_symop_operation_xyz
  'x, y, z'

loop_
  _atom_site_type_symbol
  _atom_site_label
  _atom_site_symmetry_multiplicity
  _atom_site_fract_x
  _atom_site_fract_y
  _atom_site_fract_z
  _atom_site_occupancy
  C   C1        1.0  0.18282  0.98648  0.99179  1.0000
  C   C2        1.0  0.17514  0.98303  0.04208  1.0000
  C   C3        1.0  0.18235  0.02849  0.06400  1.0000
  C   C4        1.0  0.12861  0.96451  0.05248  1.0000
  O   O1        1.0  0.09518  0.99350  0.03509  1.0000
  C   C5        1.0  0.05133  0.97677  0.04298  1.0000
  C   C6        1.0  0.01723  0.00670  0.01892  1.0000
  C   C7        1.0  0.97001  0.99552  0.03599  1.0000
  C   C8        1.0  0.92957  0.00342  0.00501  1.0000
  C   C9        1.0  0.92211  0.05047  0.98680  1.0000
  C   C10       1.0  0.94101  0.08825  0.00702  1.0000
  C   C11       1.0  0.93263  0.13111  0.99070  1.0000
  C   C12       1.0  0.90443  0.13719  0.95439  1.0000
  C   C13       1.0  0.88414  0.10045  0.93474  1.0000
  C   C14       1.0  0.89252  0.05765  0.95107  1.0000
  C   C15       1.0  0.92771  0.96599  0.97026  1.0000
  C   C16       1.0  0.89763  0.93232  0.97040  1.0000
  C   C17       1.0  0.86178  0.92445  0.00174  1.0000
  C   C18       1.0  0.83523  0.88871  0.99893  1.0000
  O   O2        1.0  0.80072  0.87972  0.02739  1.0000
  C   C19       1.0  0.96210  0.96731  0.93297  1.0000
  N   N1        1.0  0.00853  0.96339  0.94799  1.0000
  Cl  Cl1       1.0  0.04372  0.94697  0.90320  1.0000
  C   C20       1.0  0.02405  0.00519  0.96815  1.0000
  H   H1        1.0  0.15997  0.01033  0.97623  1.0000
  H   H2        1.0  0.17799  0.95404  0.97573  1.0000
  H   H3        1.0  0.21691  0.99743  0.98469  1.0000
  H   H4        1.0  0.19979  0.95974  0.05578  1.0000
  H   H5        1.0  0.15941  0.05364  0.05083  1.0000
  H   H6        1.0  0.17730  0.02635  0.10008  1.0000
  H   H7        1.0  0.21640  0.04030  0.05821  1.0000
  H   H8        1.0  0.12498  0.93139  0.03745  1.0000
  H   H9        1.0  0.12423  0.96131  0.08862  1.0000
  H   H10       1.0  0.04522  0.97718  0.07900  1.0000
  H   H11       1.0  0.04876  0.94229  0.03114  1.0000
  H   H12       1.0  0.02492  0.04111  0.02878  1.0000
  H   H13       1.0  0.96488  0.01414  0.06713  1.0000
  H   H14       1.0  0.96919  0.96035  0.04640  1.0000
  H   H15       1.0  0.90091  0.99959  0.02738  1.0000
  H   H16       1.0  0.96239  0.08532  0.03609  1.0000
  H   H17       1.0  0.94806  0.15979  0.00660  1.0000
  H   H18       1.0  0.89790  0.17051  0.94180  1.0000
  H   H19       1.0  0.86144  0.10501  0.90687  1.0000
  H   H20       1.0  0.87534  0.02978  0.93544  1.0000
  H   H21       1.0  0.89983  0.90735  0.94400  1.0000
  H   H22       1.0  0.85611  0.94832  0.02822  1.0000
  H   H23       1.0  0.83812  0.86282  0.97391  1.0000
  H   H24       1.0  0.79835  0.90379  0.04897  1.0000
  H   H25       1.0  0.95735  0.99721  0.91244  1.0000
  H   H26       1.0  0.95523  0.93946  0.91020  1.0000
  H   H27       1.0  0.00865  0.03423  0.95214  1.0000
  H   H28       1.0  0.05982  0.00965  0.96176  1.0000
