data_image0
_chemical_formula_structural       C3N2C2NC2NC8OCH14
_chemical_formula_sum              "C16 N4 O1 H14"
_cell_length_a       30
_cell_length_b       30
_cell_length_c       30
_cell_angle_alpha    90
_cell_angle_beta     90
_cell_angle_gamma    90

_space_group_name_H-M_alt    "P 1"
_space_group_IT_number       1

loop_
  _space_group_symop_operation_xyz
  'x, y, z'

loop_
  _atom_site_type_symbol
  _atom_site_label
  _atom_site_symmetry_multiplicity
  _atom_site_fract_x
  _atom_site_fract_y
  _atom_site_fract_z
  _atom_site_occupancy
  C   C1        1.0  0.18670  0.04294  0.02566  1.0000
  C   C2        1.0  0.16843  0.99619  0.02229  1.0000
  C   C3        1.0  0.20043  0.95821  0.02966  1.0000
  N   N1        1.0  0.12707  0.98677  0.01348  1.0000
  N   N2        1.0  0.10037  0.02423  0.00727  1.0000
  C   C4        1.0  0.05958  0.01394  0.99918  1.0000
  C   C5        1.0  0.02501  0.04853  0.99141  1.0000
  N   N3        1.0  0.98653  0.03086  0.98400  1.0000
  C   C6        1.0  0.99380  0.98505  0.98630  1.0000
  C   C7        1.0  0.95545  0.95333  0.97863  1.0000
  N   N4        1.0  0.93767  0.95917  0.93312  1.0000
  C   C8        1.0  0.90114  0.98071  0.92718  1.0000
  C   C9        1.0  0.87276  0.99829  0.96263  1.0000
  C   C10       1.0  0.83554  0.02422  0.95214  1.0000
  C   C11       1.0  0.80787  0.03934  0.98637  1.0000
  C   C12       1.0  0.81727  0.02833  0.03063  1.0000
  C   C13       1.0  0.85444  0.00224  0.04081  1.0000
  C   C14       1.0  0.88229  0.98735  0.00652  1.0000
  C   C15       1.0  0.92178  0.95982  0.01604  1.0000
  O   O1        1.0  0.92713  0.94458  0.05377  1.0000
  C   C16       1.0  0.03563  0.97179  0.99520  1.0000
  H   H1        1.0  0.16949  0.06099  0.05224  1.0000
  H   H2        1.0  0.22232  0.04211  0.03331  1.0000
  H   H3        1.0  0.18200  0.06031  0.99396  1.0000
  H   H4        1.0  0.21466  0.96079  0.06311  1.0000
  H   H5        1.0  0.18342  0.92614  0.02637  1.0000
  H   H6        1.0  0.22722  0.96008  0.00503  1.0000
  H   H7        1.0  0.03409  0.08396  0.99253  1.0000
  H   H8        1.0  0.96668  0.91860  0.98098  1.0000
  H   H9        1.0  0.88968  0.98587  0.89261  1.0000
  H   H10       1.0  0.82783  0.03276  0.91778  1.0000
  H   H11       1.0  0.77886  0.05967  0.97861  1.0000
  H   H12       1.0  0.79564  0.04009  0.05725  1.0000
  H   H13       1.0  0.86171  0.99373  0.07531  1.0000
  H   H14       1.0  0.04951  0.93901  0.99857  1.0000
