data_image0
_chemical_formula_structural       C3SO2C5NClCOC13H34
_chemical_formula_sum              "C22 S1 O3 N1 Cl1 H34"
_cell_length_a       30
_cell_length_b       30
_cell_length_c       30
_cell_angle_alpha    90
_cell_angle_beta     90
_cell_angle_gamma    90

_space_group_name_H-M_alt    "P 1"
_space_group_IT_number       1

loop_
  _space_group_symop_operation_xyz
  'x, y, z'

loop_
  _atom_site_type_symbol
  _atom_site_label
  _atom_site_symmetry_multiplicity
  _atom_site_fract_x
  _atom_site_fract_y
  _atom_site_fract_z
  _atom_site_occupancy
  C   C1        1.0  0.25980  0.02428  0.03298  1.0000
  C   C2        1.0  0.23677  0.00404  0.99245  1.0000
  C   C3        1.0  0.26620  0.00901  0.95119  1.0000
  S   S1        1.0  0.18288  0.02868  0.98217  1.0000
  O   O1        1.0  0.18779  0.07676  0.98284  1.0000
  O   O2        1.0  0.16417  0.00638  0.94350  1.0000
  C   C4        1.0  0.15006  0.01278  0.02932  1.0000
  C   C5        1.0  0.10394  0.03435  0.03028  1.0000
  C   C6        1.0  0.07230  0.02275  0.99190  1.0000
  C   C7        1.0  0.06334  0.97277  0.98697  1.0000
  C   C8        1.0  0.03212  0.96194  0.94795  1.0000
  N   N1        1.0  0.98685  0.97890  0.95417  1.0000
  Cl  Cl1       1.0  0.97337  0.02565  0.92266  1.0000
  C   C9        1.0  0.95792  0.95663  0.98279  1.0000
  O   O3        1.0  0.97131  0.92287  0.00250  1.0000
  C   C10       1.0  0.90957  0.97425  0.99189  1.0000
  C   C11       1.0  0.91502  0.01853  0.01879  1.0000
  C   C12       1.0  0.87326  0.04380  0.03155  1.0000
  C   C13       1.0  0.85460  0.07526  0.00248  1.0000
  C   C14       1.0  0.81621  0.09872  0.01438  1.0000
  C   C15       1.0  0.79623  0.09128  0.05562  1.0000
  C   C16       1.0  0.81475  0.06055  0.08507  1.0000
  C   C17       1.0  0.85313  0.03709  0.07320  1.0000
  C   C18       1.0  0.88528  0.93930  0.02230  1.0000
  C   C19       1.0  0.86824  0.89920  0.99590  1.0000
  C   C20       1.0  0.83322  0.91281  0.96157  1.0000
  C   C21       1.0  0.83551  0.96209  0.94924  1.0000
  C   C22       1.0  0.88353  0.97893  0.94730  1.0000
  H   H1        1.0  0.29274  0.00932  0.03789  1.0000
  H   H2        1.0  0.26429  0.06031  0.02925  1.0000
  H   H3        1.0  0.24072  0.01857  0.06349  1.0000
  H   H4        1.0  0.23067  0.96849  0.99828  1.0000
  H   H5        1.0  0.29874  0.99332  0.95646  1.0000
  H   H6        1.0  0.25085  0.99318  0.92211  1.0000
  H   H7        1.0  0.27171  0.04416  0.94299  1.0000
  H   H8        1.0  0.14813  0.97640  0.02981  1.0000
  H   H9        1.0  0.16814  0.02359  0.05906  1.0000
  H   H10       1.0  0.10776  0.07070  0.03120  1.0000
  H   H11       1.0  0.08776  0.02500  0.06173  1.0000
  H   H12       1.0  0.04074  0.04007  0.99826  1.0000
  H   H13       1.0  0.08511  0.03634  0.96053  1.0000
  H   H14       1.0  0.09471  0.95507  0.98107  1.0000
  H   H15       1.0  0.04960  0.95984  0.01825  1.0000
  H   H16       1.0  0.04595  0.97493  0.91671  1.0000
  H   H17       1.0  0.03014  0.92563  0.94417  1.0000
  H   H18       1.0  0.93369  0.01120  0.04950  1.0000
  H   H19       1.0  0.93662  0.04216  0.00132  1.0000
  H   H20       1.0  0.86994  0.08199  0.97033  1.0000
  H   H21       1.0  0.80200  0.12294  0.99148  1.0000
  H   H22       1.0  0.76637  0.10958  0.06488  1.0000
  H   H23       1.0  0.79936  0.05488  0.11738  1.0000
  H   H24       1.0  0.86722  0.01339  0.09676  1.0000
  H   H25       1.0  0.90713  0.92784  0.04927  1.0000
  H   H26       1.0  0.85638  0.95421  0.03887  1.0000
  H   H27       1.0  0.85396  0.87443  0.01866  1.0000
  H   H28       1.0  0.89604  0.88265  0.97894  1.0000
  H   H29       1.0  0.83742  0.89226  0.93162  1.0000
  H   H30       1.0  0.79977  0.90543  0.97433  1.0000
  H   H31       1.0  0.81652  0.98171  0.97352  1.0000
  H   H32       1.0  0.81919  0.96726  0.91695  1.0000
  H   H33       1.0  0.88290  0.01358  0.93599  1.0000
  H   H34       1.0  0.90041  0.95997  0.92091  1.0000
