data_image0
_chemical_formula_structural       C3N2C6N4CNC4NCH18
_chemical_formula_sum              "C15 N8 H18"
_cell_length_a       30
_cell_length_b       30
_cell_length_c       30
_cell_angle_alpha    90
_cell_angle_beta     90
_cell_angle_gamma    90

_space_group_name_H-M_alt    "P 1"
_space_group_IT_number       1

loop_
  _space_group_symop_operation_xyz
  'x, y, z'

loop_
  _atom_site_type_symbol
  _atom_site_label
  _atom_site_symmetry_multiplicity
  _atom_site_fract_x
  _atom_site_fract_y
  _atom_site_fract_z
  _atom_site_occupancy
  C   C1        1.0  0.80743  0.97084  0.03044  1.0000
  C   C2        1.0  0.83939  0.00885  0.03809  1.0000
  C   C3        1.0  0.82076  0.05098  0.05829  1.0000
  N   N1        1.0  0.88071  0.00335  0.02632  1.0000
  N   N2        1.0  0.90893  0.03833  0.03233  1.0000
  C   C4        1.0  0.95416  0.03182  0.02100  1.0000
  C   C5        1.0  0.98215  0.06822  0.01697  1.0000
  C   C6        1.0  0.02734  0.06194  0.00781  1.0000
  C   C7        1.0  0.04776  0.01940  0.00221  1.0000
  C   C8        1.0  0.01959  0.98174  0.00761  1.0000
  C   C9        1.0  0.97352  0.98948  0.01766  1.0000
  N   N3        1.0  0.03025  0.93483  0.00372  1.0000
  N   N4        1.0  0.00361  0.90479  0.02576  1.0000
  N   N5        1.0  0.01602  0.86445  0.01360  1.0000
  N   N6        1.0  0.05037  0.86619  0.98435  1.0000
  C   C10       1.0  0.06087  0.90853  0.97915  1.0000
  N   N7        1.0  0.09365  0.92243  0.95154  1.0000
  C   C11       1.0  0.11873  0.95999  0.95607  1.0000
  C   C12       1.0  0.13671  0.98269  0.92185  1.0000
  C   C13       1.0  0.14747  0.03101  0.93066  1.0000
  C   C14       1.0  0.11113  0.05246  0.96100  1.0000
  N   N8        1.0  0.09413  0.02148  0.99641  1.0000
  C   C15       1.0  0.12062  0.98169  0.00158  1.0000
  H   H1        1.0  0.78167  0.98140  0.00692  1.0000
  H   H2        1.0  0.79179  0.96162  0.06204  1.0000
  H   H3        1.0  0.82483  0.94184  0.01687  1.0000
  H   H4        1.0  0.84156  0.06183  0.08617  1.0000
  H   H5        1.0  0.81963  0.07709  0.03288  1.0000
  H   H6        1.0  0.78697  0.04521  0.07064  1.0000
  H   H7        1.0  0.89782  0.06911  0.02325  1.0000
  H   H8        1.0  0.96963  0.10188  0.02142  1.0000
  H   H9        1.0  0.04791  0.09184  0.00661  1.0000
  H   H10       1.0  0.95085  0.96137  0.02207  1.0000
  H   H11       1.0  0.10339  0.90118  0.92704  1.0000
  H   H12       1.0  0.13566  0.97066  0.88781  1.0000
  H   H13       1.0  0.18049  0.03356  0.94615  1.0000
  H   H14       1.0  0.14899  0.04946  0.89918  1.0000
  H   H15       1.0  0.12485  0.08236  0.97690  1.0000
  H   H16       1.0  0.08381  0.06316  0.93909  1.0000
  H   H17       1.0  0.15518  0.99038  0.01003  1.0000
  H   H18       1.0  0.10969  0.96057  0.02927  1.0000
