data_image0
_chemical_formula_structural       C4OCNC3NCOCNC6SC5ClH24
_chemical_formula_sum              "C21 O2 N3 S1 Cl1 H24"
_cell_length_a       30
_cell_length_b       30
_cell_length_c       30
_cell_angle_alpha    90
_cell_angle_beta     90
_cell_angle_gamma    90

_space_group_name_H-M_alt    "P 1"
_space_group_IT_number       1

loop_
  _space_group_symop_operation_xyz
  'x, y, z'

loop_
  _atom_site_type_symbol
  _atom_site_label
  _atom_site_symmetry_multiplicity
  _atom_site_fract_x
  _atom_site_fract_y
  _atom_site_fract_z
  _atom_site_occupancy
  C   C1        1.0  0.16367  0.88995  0.05236  1.0000
  C   C2        1.0  0.11862  0.88690  0.07597  1.0000
  C   C3        1.0  0.12505  0.87872  0.12599  1.0000
  C   C4        1.0  0.09026  0.92872  0.06824  1.0000
  O   O1        1.0  0.08583  0.93539  0.02134  1.0000
  C   C5        1.0  0.06122  0.97268  0.00997  1.0000
  N   N1        1.0  0.03548  0.99253  0.04140  1.0000
  C   C6        1.0  0.00978  0.02726  0.02798  1.0000
  C   C7        1.0  0.00921  0.04433  0.98490  1.0000
  C   C8        1.0  0.98120  0.08361  0.97052  1.0000
  N   N2        1.0  0.93942  0.09141  0.99514  1.0000
  C   C9        1.0  0.89845  0.07352  0.97909  1.0000
  O   O2        1.0  0.86319  0.09235  0.98875  1.0000
  C   C10       1.0  0.89903  0.03305  0.95148  1.0000
  N   N3        1.0  0.92961  0.00189  0.95344  1.0000
  C   C11       1.0  0.91954  0.96715  0.92489  1.0000
  C   C12       1.0  0.94430  0.92774  0.91921  1.0000
  C   C13       1.0  0.93026  0.89574  0.88844  1.0000
  C   C14       1.0  0.89196  0.90258  0.86316  1.0000
  C   C15       1.0  0.86641  0.94114  0.86864  1.0000
  C   C16       1.0  0.88093  0.97314  0.89967  1.0000
  S   S1        1.0  0.85708  0.02344  0.91399  1.0000
  C   C17       1.0  0.93595  0.13233  0.02261  1.0000
  C   C18       1.0  0.93343  0.17446  0.99390  1.0000
  C   C19       1.0  0.97258  0.13665  0.05782  1.0000
  C   C20       1.0  0.03728  0.02360  0.95362  1.0000
  C   C21       1.0  0.06296  0.98690  0.96588  1.0000
  Cl  Cl1       1.0  0.09543  0.96073  0.92638  1.0000
  H   H1        1.0  0.15945  0.89096  0.01614  1.0000
  H   H2        1.0  0.18437  0.86083  0.05979  1.0000
  H   H3        1.0  0.18222  0.91981  0.06247  1.0000
  H   H4        1.0  0.10087  0.85830  0.06162  1.0000
  H   H5        1.0  0.14519  0.90495  0.14134  1.0000
  H   H6        1.0  0.14172  0.84694  0.13184  1.0000
  H   H7        1.0  0.09310  0.87776  0.14330  1.0000
  H   H8        1.0  0.05730  0.92370  0.08340  1.0000
  H   H9        1.0  0.10631  0.95772  0.08363  1.0000
  H   H10       1.0  0.98866  0.04071  0.05415  1.0000
  H   H11       1.0  0.00224  0.11346  0.97264  1.0000
  H   H12       1.0  0.97265  0.08029  0.93503  1.0000
  H   H13       1.0  0.97428  0.92262  0.93826  1.0000
  H   H14       1.0  0.94960  0.86536  0.88404  1.0000
  H   H15       1.0  0.88125  0.87728  0.83938  1.0000
  H   H16       1.0  0.83608  0.94599  0.84973  1.0000
  H   H17       1.0  0.90470  0.13029  0.04125  1.0000
  H   H18       1.0  0.96515  0.18142  0.97738  1.0000
  H   H19       1.0  0.92517  0.20357  0.01441  1.0000
  H   H20       1.0  0.90796  0.17140  0.96785  1.0000
  H   H21       1.0  0.96826  0.16719  0.07726  1.0000
  H   H22       1.0  0.00609  0.13756  0.04349  1.0000
  H   H23       1.0  0.97115  0.10878  0.08109  1.0000
  H   H24       1.0  0.03807  0.03525  0.91923  1.0000
