data_image0
_chemical_formula_structural       C4NCOC6NC5OCOC2H26
_chemical_formula_sum              "C19 N2 O3 H26"
_cell_length_a       30
_cell_length_b       30
_cell_length_c       30
_cell_angle_alpha    90
_cell_angle_beta     90
_cell_angle_gamma    90

_space_group_name_H-M_alt    "P 1"
_space_group_IT_number       1

loop_
  _space_group_symop_operation_xyz
  'x, y, z'

loop_
  _atom_site_type_symbol
  _atom_site_label
  _atom_site_symmetry_multiplicity
  _atom_site_fract_x
  _atom_site_fract_y
  _atom_site_fract_z
  _atom_site_occupancy
  C   C1        1.0  0.97654  0.99527  0.89190  1.0000
  C   C2        1.0  0.97231  0.02310  0.93449  1.0000
  C   C3        1.0  0.01565  0.02244  0.96207  1.0000
  C   C4        1.0  0.02938  0.97670  0.97985  1.0000
  N   N1        1.0  0.07068  0.97925  0.00491  1.0000
  C   C5        1.0  0.11174  0.97854  0.98422  1.0000
  O   O1        1.0  0.11608  0.97374  0.94384  1.0000
  C   C6        1.0  0.15087  0.98388  0.01622  1.0000
  C   C7        1.0  0.19536  0.97482  0.99239  1.0000
  C   C8        1.0  0.23518  0.98836  0.01960  1.0000
  C   C9        1.0  0.23236  0.01517  0.05524  1.0000
  C   C10       1.0  0.18939  0.03528  0.07099  1.0000
  C   C11       1.0  0.15131  0.03048  0.03733  1.0000
  N   N2        1.0  0.93488  0.00821  0.96228  1.0000
  C   C12       1.0  0.89192  0.02518  0.94672  1.0000
  C   C13       1.0  0.85470  0.00809  0.97607  1.0000
  C   C14       1.0  0.82648  0.97340  0.96111  1.0000
  C   C15       1.0  0.79223  0.95699  0.98815  1.0000
  C   C16       1.0  0.78711  0.97562  0.02981  1.0000
  O   O2        1.0  0.75582  0.96383  0.06042  1.0000
  C   C17       1.0  0.76669  0.99382  0.09641  1.0000
  O   O3        1.0  0.80392  0.02267  0.08676  1.0000
  C   C18       1.0  0.81449  0.00915  0.04480  1.0000
  C   C19       1.0  0.84852  0.02601  0.01892  1.0000
  H   H1        1.0  0.97862  0.95953  0.89904  1.0000
  H   H2        1.0  0.94791  0.00042  0.86986  1.0000
  H   H3        1.0  0.00646  0.00476  0.87325  1.0000
  H   H4        1.0  0.96707  0.05800  0.92477  1.0000
  H   H5        1.0  0.01217  0.04551  0.99030  1.0000
  H   H6        1.0  0.04274  0.03610  0.94158  1.0000
  H   H7        1.0  0.00419  0.96334  0.00261  1.0000
  H   H8        1.0  0.03395  0.95288  0.95260  1.0000
  H   H9        1.0  0.06878  0.98512  0.03805  1.0000
  H   H10       1.0  0.14662  0.95886  0.04266  1.0000
  H   H11       1.0  0.19770  0.93913  0.98478  1.0000
  H   H12       1.0  0.19704  0.99248  0.96041  1.0000
  H   H13       1.0  0.26745  0.97549  0.00925  1.0000
  H   H14       1.0  0.26235  0.02334  0.07389  1.0000
  H   H15       1.0  0.18005  0.01921  0.10246  1.0000
  H   H16       1.0  0.19450  0.07073  0.07817  1.0000
  H   H17       1.0  0.11969  0.03787  0.05407  1.0000
  H   H18       1.0  0.15495  0.05570  0.01103  1.0000
  H   H19       1.0  0.93342  0.97426  0.96294  1.0000
  H   H20       1.0  0.89147  0.06174  0.94758  1.0000
  H   H21       1.0  0.88552  0.01527  0.91215  1.0000
  H   H22       1.0  0.83123  0.95905  0.92813  1.0000
  H   H23       1.0  0.77046  0.93047  0.97684  1.0000
  H   H24       1.0  0.73744  0.01450  0.10361  1.0000
  H   H25       1.0  0.77463  0.97404  0.12609  1.0000
  H   H26       1.0  0.87004  0.05220  0.03152  1.0000
