data_image0
_chemical_formula_structural       C7ONC9H23
_chemical_formula_sum              "C16 O1 N1 H23"
_cell_length_a       30
_cell_length_b       30
_cell_length_c       30
_cell_angle_alpha    90
_cell_angle_beta     90
_cell_angle_gamma    90

_space_group_name_H-M_alt    "P 1"
_space_group_IT_number       1

loop_
  _space_group_symop_operation_xyz
  'x, y, z'

loop_
  _atom_site_type_symbol
  _atom_site_label
  _atom_site_symmetry_multiplicity
  _atom_site_fract_x
  _atom_site_fract_y
  _atom_site_fract_z
  _atom_site_occupancy
  C   C1        1.0  0.15987  0.02448  0.97591  1.0000
  C   C2        1.0  0.14772  0.98853  0.00995  1.0000
  C   C3        1.0  0.16791  0.00031  0.05531  1.0000
  C   C4        1.0  0.09696  0.98231  0.01459  1.0000
  C   C5        1.0  0.07465  0.96513  0.97189  1.0000
  C   C6        1.0  0.02500  0.95499  0.97857  1.0000
  C   C7        1.0  0.99549  0.99658  0.98116  1.0000
  O   O1        1.0  0.01251  0.03350  0.97555  1.0000
  N   N1        1.0  0.94967  0.98881  0.98925  1.0000
  C   C8        1.0  0.93126  0.94386  0.98271  1.0000
  C   C9        1.0  0.88454  0.93698  0.00079  1.0000
  C   C10       1.0  0.85389  0.97168  0.98090  1.0000
  C   C11       1.0  0.87194  0.01729  0.99107  1.0000
  C   C12       1.0  0.84132  0.05258  0.99545  1.0000
  C   C13       1.0  0.85589  0.09544  0.00525  1.0000
  C   C14       1.0  0.90111  0.10329  0.01085  1.0000
  C   C15       1.0  0.93178  0.06845  0.00596  1.0000
  C   C16       1.0  0.91823  0.02501  0.99507  1.0000
  H   H1        1.0  0.14397  0.05632  0.98403  1.0000
  H   H2        1.0  0.19598  0.02983  0.97507  1.0000
  H   H3        1.0  0.14965  0.01492  0.94223  1.0000
  H   H4        1.0  0.16250  0.95691  0.99901  1.0000
  H   H5        1.0  0.15449  0.03180  0.06802  1.0000
  H   H6        1.0  0.20418  0.00363  0.05292  1.0000
  H   H7        1.0  0.16078  0.97425  0.07986  1.0000
  H   H8        1.0  0.09051  0.95839  0.04151  1.0000
  H   H9        1.0  0.08171  0.01388  0.02489  1.0000
  H   H10       1.0  0.09136  0.93427  0.96160  1.0000
  H   H11       1.0  0.07879  0.98909  0.94466  1.0000
  H   H12       1.0  0.02091  0.93537  0.00907  1.0000
  H   H13       1.0  0.01382  0.93516  0.95001  1.0000
  H   H14       1.0  0.95281  0.91931  0.99888  1.0000
  H   H15       1.0  0.93218  0.93698  0.94678  1.0000
  H   H16       1.0  0.87269  0.90344  0.99253  1.0000
  H   H17       1.0  0.88484  0.93973  0.03728  1.0000
  H   H18       1.0  0.82049  0.96754  0.99512  1.0000
  H   H19       1.0  0.85124  0.96761  0.94467  1.0000
  H   H20       1.0  0.80579  0.04658  0.99143  1.0000
  H   H21       1.0  0.83210  0.12251  0.00881  1.0000
  H   H22       1.0  0.91297  0.13653  0.01905  1.0000
  H   H23       1.0  0.96652  0.07673  0.01170  1.0000
