data_image0
_chemical_formula_structural       C3ONC7NC2OCOH22
_chemical_formula_sum              "C13 O3 N2 H22"
_cell_length_a       30
_cell_length_b       30
_cell_length_c       30
_cell_angle_alpha    90
_cell_angle_beta     90
_cell_angle_gamma    90

_space_group_name_H-M_alt    "P 1"
_space_group_IT_number       1

loop_
  _space_group_symop_operation_xyz
  'x, y, z'

loop_
  _atom_site_type_symbol
  _atom_site_label
  _atom_site_symmetry_multiplicity
  _atom_site_fract_x
  _atom_site_fract_y
  _atom_site_fract_z
  _atom_site_occupancy
  C   C1        1.0  0.89746  0.93640  0.00612  1.0000
  C   C2        1.0  0.92279  0.97756  0.99015  1.0000
  C   C3        1.0  0.94791  0.99878  0.02924  1.0000
  O   O1        1.0  0.93147  0.03108  0.04887  1.0000
  N   N1        1.0  0.98876  0.98075  0.04228  1.0000
  C   C4        1.0  0.01534  0.00729  0.07314  1.0000
  C   C5        1.0  0.03686  0.04766  0.05033  1.0000
  C   C6        1.0  0.06828  0.03737  0.01099  1.0000
  C   C7        1.0  0.10810  0.00885  0.02476  1.0000
  C   C8        1.0  0.09705  0.96178  0.00962  1.0000
  C   C9        1.0  0.05134  0.96459  0.98695  1.0000
  C   C10       1.0  0.01333  0.94651  0.01731  1.0000
  N   N2        1.0  0.04545  0.01218  0.97523  1.0000
  C   C11       1.0  0.06474  0.02213  0.93148  1.0000
  C   C12       1.0  0.89104  0.01070  0.96979  1.0000
  O   O2        1.0  0.88619  0.00801  0.92240  1.0000
  C   C13       1.0  0.90863  0.04664  0.93953  1.0000
  O   O3        1.0  0.88342  0.08719  0.93876  1.0000
  H   H1        1.0  0.91969  0.91168  0.02111  1.0000
  H   H2        1.0  0.87257  0.94528  0.03136  1.0000
  H   H3        1.0  0.87984  0.92051  0.97837  1.0000
  H   H4        1.0  0.94667  0.96804  0.96426  1.0000
  H   H5        1.0  0.04033  0.98582  0.08889  1.0000
  H   H6        1.0  0.99363  0.01924  0.10001  1.0000
  H   H7        1.0  0.05551  0.06641  0.07562  1.0000
  H   H8        1.0  0.01065  0.07023  0.03838  1.0000
  H   H9        1.0  0.08004  0.06979  0.99873  1.0000
  H   H10       1.0  0.11492  0.01021  0.06059  1.0000
  H   H11       1.0  0.13832  0.02020  0.00759  1.0000
  H   H12       1.0  0.12231  0.95074  0.98559  1.0000
  H   H13       1.0  0.09794  0.93834  0.03756  1.0000
  H   H14       1.0  0.05170  0.94320  0.95724  1.0000
  H   H15       1.0  0.02633  0.92271  0.04182  1.0000
  H   H16       1.0  0.99033  0.92735  0.99663  1.0000
  H   H17       1.0  0.10039  0.01448  0.92943  1.0000
  H   H18       1.0  0.06010  0.05743  0.92338  1.0000
  H   H19       1.0  0.04745  0.00317  0.90550  1.0000
  H   H20       1.0  0.86197  0.01789  0.98989  1.0000
  H   H21       1.0  0.94433  0.04886  0.93420  1.0000
  H   H22       1.0  0.88683  0.10294  0.96691  1.0000
