data_image0
_chemical_formula_structural       C5ONC5NOC2ONC3OC8H27
_chemical_formula_sum              "C23 O4 N3 H27"
_cell_length_a       30
_cell_length_b       30
_cell_length_c       30
_cell_angle_alpha    90
_cell_angle_beta     90
_cell_angle_gamma    90

_space_group_name_H-M_alt    "P 1"
_space_group_IT_number       1

loop_
  _space_group_symop_operation_xyz
  'x, y, z'

loop_
  _atom_site_type_symbol
  _atom_site_label
  _atom_site_symmetry_multiplicity
  _atom_site_fract_x
  _atom_site_fract_y
  _atom_site_fract_z
  _atom_site_occupancy
  C   C1        1.0  0.70593  0.02448  0.98251  1.0000
  C   C2        1.0  0.75071  0.03451  0.00266  1.0000
  C   C3        1.0  0.75747  0.08246  0.01578  1.0000
  C   C4        1.0  0.78134  0.00205  0.00784  1.0000
  C   C5        1.0  0.82561  0.00982  0.02844  1.0000
  O   O1        1.0  0.82805  0.02152  0.06760  1.0000
  N   N1        1.0  0.86232  0.00261  0.00151  1.0000
  C   C6        1.0  0.86215  0.98397  0.95650  1.0000
  C   C7        1.0  0.89495  0.94468  0.95249  1.0000
  C   C8        1.0  0.91276  0.92818  0.99752  1.0000
  C   C9        1.0  0.93137  0.96586  0.02734  1.0000
  C   C10       1.0  0.98082  0.97193  0.02246  1.0000
  N   N2        1.0  0.99912  0.98037  0.98259  1.0000
  O   O2        1.0  0.04430  0.98500  0.99006  1.0000
  C   C11       1.0  0.05310  0.97962  0.03438  1.0000
  C   C12       1.0  0.09831  0.98363  0.05010  1.0000
  O   O3        1.0  0.10890  0.97867  0.08937  1.0000
  N   N3        1.0  0.12920  0.99334  0.01751  1.0000
  C   C13       1.0  0.17686  0.99288  0.02634  1.0000
  C   C14       1.0  0.19384  0.94483  0.02540  1.0000
  C   C15       1.0  0.24438  0.94521  0.02457  1.0000
  O   O4        1.0  0.26124  0.96588  0.98508  1.0000
  C   C16       1.0  0.24226  0.00615  0.97502  1.0000
  C   C17       1.0  0.26531  0.03195  0.94399  1.0000
  C   C18       1.0  0.24914  0.07377  0.93173  1.0000
  C   C19       1.0  0.21005  0.08991  0.95065  1.0000
  C   C20       1.0  0.18669  0.06391  0.98139  1.0000
  C   C21       1.0  0.20209  0.02129  0.99328  1.0000
  C   C22       1.0  0.01370  0.97091  0.05627  1.0000
  C   C23       1.0  0.90675  0.01028  0.01971  1.0000
  H   H1        1.0  0.70318  0.98965  0.97168  1.0000
  H   H2        1.0  0.70022  0.04558  0.95330  1.0000
  H   H3        1.0  0.67954  0.03080  0.00690  1.0000
  H   H4        1.0  0.73302  0.09194  0.04122  1.0000
  H   H5        1.0  0.79060  0.08916  0.02949  1.0000
  H   H6        1.0  0.75322  0.10422  0.98678  1.0000
  H   H7        1.0  0.77474  0.96790  0.99787  1.0000
  H   H8        1.0  0.82876  0.97349  0.94599  1.0000
  H   H9        1.0  0.87267  0.01071  0.93358  1.0000
  H   H10       1.0  0.92306  0.95445  0.93102  1.0000
  H   H11       1.0  0.87851  0.91694  0.93508  1.0000
  H   H12       1.0  0.88497  0.91209  0.01517  1.0000
  H   H13       1.0  0.93772  0.90203  0.99206  1.0000
  H   H14       1.0  0.92507  0.95542  0.06200  1.0000
  H   H15       1.0  0.11903  0.99332  0.98529  1.0000
  H   H16       1.0  0.18266  0.00689  0.05967  1.0000
  H   H17       1.0  0.18147  0.92777  0.99540  1.0000
  H   H18       1.0  0.18153  0.92618  0.05434  1.0000
  H   H19       1.0  0.25664  0.91082  0.02466  1.0000
  H   H20       1.0  0.25845  0.96182  0.05407  1.0000
  H   H21       1.0  0.29607  0.01942  0.92956  1.0000
  H   H22       1.0  0.26726  0.09374  0.90762  1.0000
  H   H23       1.0  0.19745  0.12264  0.94147  1.0000
  H   H24       1.0  0.15617  0.07704  0.99599  1.0000
  H   H25       1.0  0.00960  0.96528  0.09163  1.0000
  H   H26       1.0  0.92440  0.03184  0.99584  1.0000
  H   H27       1.0  0.90524  0.02917  0.05110  1.0000
