data_image0
_chemical_formula_structural       C5ONC3OC5NC12NCH35
_chemical_formula_sum              "C26 O2 N3 H35"
_cell_length_a       30
_cell_length_b       30
_cell_length_c       30
_cell_angle_alpha    90
_cell_angle_beta     90
_cell_angle_gamma    90

_space_group_name_H-M_alt    "P 1"
_space_group_IT_number       1

loop_
  _space_group_symop_operation_xyz
  'x, y, z'

loop_
  _atom_site_type_symbol
  _atom_site_label
  _atom_site_symmetry_multiplicity
  _atom_site_fract_x
  _atom_site_fract_y
  _atom_site_fract_z
  _atom_site_occupancy
  C   C1        1.0  0.84600  0.13745  0.94750  1.0000
  C   C2        1.0  0.83005  0.09290  0.96408  1.0000
  C   C3        1.0  0.79404  0.07165  0.93637  1.0000
  C   C4        1.0  0.84716  0.07510  0.00160  1.0000
  C   C5        1.0  0.83230  0.03208  0.02070  1.0000
  O   O1        1.0  0.80707  0.03275  0.05294  1.0000
  N   N1        1.0  0.84905  0.99330  0.00184  1.0000
  C   C6        1.0  0.83464  0.95080  0.02103  1.0000
  C   C7        1.0  0.78731  0.93748  0.00742  1.0000
  C   C8        1.0  0.78327  0.92666  0.95801  1.0000
  O   O2        1.0  0.73897  0.91317  0.94770  1.0000
  C   C9        1.0  0.88310  0.99174  0.96684  1.0000
  C   C10       1.0  0.92979  0.98393  0.98352  1.0000
  C   C11       1.0  0.94518  0.99760  0.02512  1.0000
  C   C12       1.0  0.98978  0.99085  0.03663  1.0000
  C   C13       1.0  0.01901  0.97100  0.00639  1.0000
  N   N2        1.0  0.06419  0.96488  0.01855  1.0000
  C   C14       1.0  0.08721  0.00786  0.02398  1.0000
  C   C15       1.0  0.13428  0.00008  0.04208  1.0000
  C   C16       1.0  0.16082  0.96816  0.01198  1.0000
  C   C17       1.0  0.20733  0.95773  0.03109  1.0000
  C   C18       1.0  0.23837  0.99736  0.03174  1.0000
  C   C19       1.0  0.25421  0.01580  0.99181  1.0000
  C   C20       1.0  0.28287  0.05244  0.99242  1.0000
  C   C21       1.0  0.29615  0.07092  0.03290  1.0000
  C   C22       1.0  0.28082  0.05275  0.07281  1.0000
  C   C23       1.0  0.25207  0.01613  0.07226  1.0000
  C   C24       1.0  0.13424  0.92477  0.00578  1.0000
  C   C25       1.0  0.08735  0.93414  0.98813  1.0000
  N   N3        1.0  0.00428  0.95720  0.96614  1.0000
  C   C26       1.0  0.96096  0.96406  0.95562  1.0000
  H   H1        1.0  0.81804  0.16076  0.94495  1.0000
  H   H2        1.0  0.86147  0.13392  0.91459  1.0000
  H   H3        1.0  0.87077  0.15239  0.96983  1.0000
  H   H4        1.0  0.80727  0.06230  0.90366  1.0000
  H   H5        1.0  0.77989  0.04182  0.95179  1.0000
  H   H6        1.0  0.76656  0.09517  0.93119  1.0000
  H   H7        1.0  0.87173  0.09252  0.02162  1.0000
  H   H8        1.0  0.85834  0.92453  0.01190  1.0000
  H   H9        1.0  0.83589  0.95391  0.05744  1.0000
  H   H10       1.0  0.77720  0.90815  0.02680  1.0000
  H   H11       1.0  0.76328  0.96367  0.01600  1.0000
  H   H12       1.0  0.79087  0.95579  0.93740  1.0000
  H   H13       1.0  0.80594  0.89968  0.94852  1.0000
  H   H14       1.0  0.73123  0.88855  0.96735  1.0000
  H   H15       1.0  0.87351  0.96490  0.94392  1.0000
  H   H16       1.0  0.88330  0.02252  0.94735  1.0000
  H   H17       1.0  0.92310  0.01334  0.04911  1.0000
  H   H18       1.0  0.00147  0.00071  0.06943  1.0000
  H   H19       1.0  0.06972  0.02968  0.04752  1.0000
  H   H20       1.0  0.08905  0.02547  0.99192  1.0000
  H   H21       1.0  0.15131  0.03229  0.04470  1.0000
  H   H22       1.0  0.13210  0.98627  0.07589  1.0000
  H   H23       1.0  0.16448  0.98389  0.97911  1.0000
  H   H24       1.0  0.22336  0.93150  0.01119  1.0000
  H   H25       1.0  0.20404  0.94390  0.06481  1.0000
  H   H26       1.0  0.24435  0.00170  0.95991  1.0000
  H   H27       1.0  0.29493  0.06651  0.96128  1.0000
  H   H28       1.0  0.31860  0.09935  0.03335  1.0000
  H   H29       1.0  0.29135  0.06706  0.10439  1.0000
  H   H30       1.0  0.24050  0.00238  0.10376  1.0000
  H   H31       1.0  0.13190  0.90699  0.03770  1.0000
  H   H32       1.0  0.15164  0.90270  0.98240  1.0000
  H   H33       1.0  0.08970  0.94820  0.95439  1.0000
  H   H34       1.0  0.06949  0.90226  0.98608  1.0000
  H   H35       1.0  0.95181  0.95249  0.92248  1.0000
