data_image0
_chemical_formula_structural       C3NC2OC3NC6NC7H33
_chemical_formula_sum              "C21 N3 O1 H33"
_cell_length_a       30
_cell_length_b       30
_cell_length_c       30
_cell_angle_alpha    90
_cell_angle_beta     90
_cell_angle_gamma    90

_space_group_name_H-M_alt    "P 1"
_space_group_IT_number       1

loop_
  _space_group_symop_operation_xyz
  'x, y, z'

loop_
  _atom_site_type_symbol
  _atom_site_label
  _atom_site_symmetry_multiplicity
  _atom_site_fract_x
  _atom_site_fract_y
  _atom_site_fract_z
  _atom_site_occupancy
  C   C1        1.0  0.91331  0.11021  0.96891  1.0000
  C   C2        1.0  0.91485  0.06001  0.95791  1.0000
  C   C3        1.0  0.88529  0.05340  0.91662  1.0000
  N   N1        1.0  0.90351  0.03252  0.99788  1.0000
  C   C4        1.0  0.93478  0.04084  0.03526  1.0000
  C   C5        1.0  0.98552  0.03784  0.02631  1.0000
  O   O1        1.0  0.99744  0.99640  0.00630  1.0000
  C   C6        1.0  0.04350  0.99327  0.99461  1.0000
  C   C7        1.0  0.07198  0.97898  0.03432  1.0000
  C   C8        1.0  0.12001  0.97586  0.02168  1.0000
  N   N2        1.0  0.13828  0.94178  0.00087  1.0000
  C   C9        1.0  0.18246  0.95227  0.99590  1.0000
  C   C10       1.0  0.21680  0.92745  0.97609  1.0000
  C   C11       1.0  0.25985  0.94537  0.97513  1.0000
  C   C12       1.0  0.26853  0.98720  0.99353  1.0000
  C   C13       1.0  0.23465  0.01247  0.01336  1.0000
  C   C14       1.0  0.19178  0.99397  0.01395  1.0000
  N   N3        1.0  0.15131  0.00853  0.02987  1.0000
  C   C15       1.0  0.14310  0.05074  0.05139  1.0000
  C   C16       1.0  0.89447  0.98438  0.98831  1.0000
  C   C17       1.0  0.84411  0.97991  0.97579  1.0000
  C   C18       1.0  0.82328  0.93517  0.98817  1.0000
  C   C19       1.0  0.82539  0.92676  0.03827  1.0000
  C   C20       1.0  0.86821  0.94443  0.05938  1.0000
  C   C21       1.0  0.90527  0.94907  0.02489  1.0000
  H   H1        1.0  0.93879  0.12001  0.99308  1.0000
  H   H2        1.0  0.91944  0.13031  0.93903  1.0000
  H   H3        1.0  0.88063  0.11973  0.98220  1.0000
  H   H4        1.0  0.94878  0.05180  0.94703  1.0000
  H   H5        1.0  0.89474  0.07674  0.89014  1.0000
  H   H6        1.0  0.88930  0.02010  0.90236  1.0000
  H   H7        1.0  0.85010  0.05937  0.92422  1.0000
  H   H8        1.0  0.92641  0.01978  0.06383  1.0000
  H   H9        1.0  0.92804  0.07431  0.04839  1.0000
  H   H10       1.0  0.00297  0.04138  0.05819  1.0000
  H   H11       1.0  0.99621  0.06534  0.00480  1.0000
  H   H12       1.0  0.04594  0.96809  0.96825  1.0000
  H   H13       1.0  0.05513  0.02478  0.98014  1.0000
  H   H14       1.0  0.06044  0.94636  0.04619  1.0000
  H   H15       1.0  0.06727  0.00158  0.06258  1.0000
  H   H16       1.0  0.20971  0.89500  0.96189  1.0000
  H   H17       1.0  0.28671  0.92641  0.95988  1.0000
  H   H18       1.0  0.30226  0.00045  0.99242  1.0000
  H   H19       1.0  0.24177  0.04494  0.02749  1.0000
  H   H20       1.0  0.17020  0.07395  0.04415  1.0000
  H   H21       1.0  0.14081  0.04493  0.08728  1.0000
  H   H22       1.0  0.11199  0.06480  0.03866  1.0000
  H   H23       1.0  0.91493  0.97452  0.95959  1.0000
  H   H24       1.0  0.82465  0.00625  0.99216  1.0000
  H   H25       1.0  0.83948  0.98434  0.93993  1.0000
  H   H26       1.0  0.78847  0.93404  0.97712  1.0000
  H   H27       1.0  0.84062  0.90837  0.97032  1.0000
  H   H28       1.0  0.82241  0.89084  0.04432  1.0000
  H   H29       1.0  0.79672  0.94230  0.05479  1.0000
  H   H30       1.0  0.87869  0.92191  0.08618  1.0000
  H   H31       1.0  0.86161  0.97680  0.07502  1.0000
  H   H32       1.0  0.91002  0.91664  0.00849  1.0000
  H   H33       1.0  0.93704  0.95502  0.04158  1.0000
