data_image0
_chemical_formula_structural       C5NC7NC3OCH24
_chemical_formula_sum              "C16 N2 O1 H24"
_cell_length_a       30
_cell_length_b       30
_cell_length_c       30
_cell_angle_alpha    90
_cell_angle_beta     90
_cell_angle_gamma    90

_space_group_name_H-M_alt    "P 1"
_space_group_IT_number       1

loop_
  _space_group_symop_operation_xyz
  'x, y, z'

loop_
  _atom_site_type_symbol
  _atom_site_label
  _atom_site_symmetry_multiplicity
  _atom_site_fract_x
  _atom_site_fract_y
  _atom_site_fract_z
  _atom_site_occupancy
  C   C1        1.0  0.13979  0.03246  0.01704  1.0000
  C   C2        1.0  0.11795  0.99264  0.99390  1.0000
  C   C3        1.0  0.13995  0.98490  0.94852  1.0000
  C   C4        1.0  0.06737  0.99893  0.98787  1.0000
  C   C5        1.0  0.04188  0.00180  0.03210  1.0000
  N   N1        1.0  0.99361  0.00203  0.02439  1.0000
  C   C6        1.0  0.97099  0.03897  0.00843  1.0000
  C   C7        1.0  0.98976  0.08193  0.00826  1.0000
  C   C8        1.0  0.96667  0.11919  0.99227  1.0000
  C   C9        1.0  0.92384  0.11447  0.97557  1.0000
  C   C10       1.0  0.90439  0.07245  0.97477  1.0000
  C   C11       1.0  0.92757  0.03489  0.99105  1.0000
  C   C12       1.0  0.90588  0.98956  0.98746  1.0000
  N   N2        1.0  0.91324  0.97042  0.94306  1.0000
  C   C13       1.0  0.92020  0.96054  0.02698  1.0000
  C   C14       1.0  0.91177  0.91101  0.02136  1.0000
  C   C15       1.0  0.95492  0.89422  0.00119  1.0000
  O   O1        1.0  0.98975  0.92296  0.01639  1.0000
  C   C16       1.0  0.96991  0.96154  0.03660  1.0000
  H   H1        1.0  0.17600  0.02813  0.01882  1.0000
  H   H2        1.0  0.12771  0.03624  0.05124  1.0000
  H   H3        1.0  0.13305  0.06353  0.99909  1.0000
  H   H4        1.0  0.12375  0.96288  0.01436  1.0000
  H   H5        1.0  0.17580  0.97912  0.95229  1.0000
  H   H6        1.0  0.12569  0.95564  0.93200  1.0000
  H   H7        1.0  0.13540  0.01367  0.92650  1.0000
  H   H8        1.0  0.05421  0.97081  0.96848  1.0000
  H   H9        1.0  0.06109  0.02883  0.96778  1.0000
  H   H10       1.0  0.05105  0.97301  0.05277  1.0000
  H   H11       1.0  0.05196  0.03087  0.05170  1.0000
  H   H12       1.0  0.02313  0.08762  0.02100  1.0000
  H   H13       1.0  0.98247  0.15177  0.99293  1.0000
  H   H14       1.0  0.90584  0.14325  0.96297  1.0000
  H   H15       1.0  0.87102  0.06873  0.96110  1.0000
  H   H16       1.0  0.86970  0.99427  0.99068  1.0000
  H   H17       1.0  0.88852  0.94842  0.93577  1.0000
  H   H18       1.0  0.91131  0.99512  0.91982  1.0000
  H   H19       1.0  0.90213  0.97299  0.05633  1.0000
  H   H20       1.0  0.90746  0.89586  0.05438  1.0000
  H   H21       1.0  0.88234  0.90252  0.00161  1.0000
  H   H22       1.0  0.95446  0.89509  0.96474  1.0000
  H   H23       1.0  0.96226  0.85997  0.01136  1.0000
  H   H24       1.0  0.97422  0.95676  0.07266  1.0000
