data_image0
_chemical_formula_structural       C3OC5NCONC13H28
_chemical_formula_sum              "C22 O2 N2 H28"
_cell_length_a       30
_cell_length_b       30
_cell_length_c       30
_cell_angle_alpha    90
_cell_angle_beta     90
_cell_angle_gamma    90

_space_group_name_H-M_alt    "P 1"
_space_group_IT_number       1

loop_
  _space_group_symop_operation_xyz
  'x, y, z'

loop_
  _atom_site_type_symbol
  _atom_site_label
  _atom_site_symmetry_multiplicity
  _atom_site_fract_x
  _atom_site_fract_y
  _atom_site_fract_z
  _atom_site_occupancy
  C   C1        1.0  0.23599  0.05841  0.99579  1.0000
  C   C2        1.0  0.23683  0.01467  0.02176  1.0000
  C   C3        1.0  0.27683  0.01400  0.05326  1.0000
  O   O1        1.0  0.19786  0.01122  0.04908  1.0000
  C   C4        1.0  0.16040  0.99175  0.03202  1.0000
  C   C5        1.0  0.12637  0.98503  0.06310  1.0000
  C   C6        1.0  0.08598  0.96556  0.05050  1.0000
  C   C7        1.0  0.07903  0.95239  0.00631  1.0000
  C   C8        1.0  0.03529  0.93235  0.99210  1.0000
  N   N1        1.0  0.00637  0.96617  0.97370  1.0000
  C   C9        1.0  0.96602  0.95374  0.95631  1.0000
  O   O2        1.0  0.95359  0.91512  0.95246  1.0000
  N   N2        1.0  0.94140  0.99028  0.94423  1.0000
  C   C10       1.0  0.89781  0.98617  0.92366  1.0000
  C   C11       1.0  0.85877  0.99879  0.95462  1.0000
  C   C12       1.0  0.81511  0.99362  0.92758  1.0000
  C   C13       1.0  0.85633  0.96894  0.99699  1.0000
  C   C14       1.0  0.83692  0.00021  0.03080  1.0000
  C   C15       1.0  0.81871  0.98960  0.07187  1.0000
  C   C16       1.0  0.80349  0.02428  0.09893  1.0000
  C   C17       1.0  0.80701  0.06876  0.08487  1.0000
  C   C18       1.0  0.82578  0.07914  0.04355  1.0000
  C   C19       1.0  0.84043  0.04448  0.01680  1.0000
  C   C20       1.0  0.86247  0.04751  0.97209  1.0000
  C   C21       1.0  0.11297  0.95969  0.97508  1.0000
  C   C22       1.0  0.15342  0.97915  0.98785  1.0000
  H   H1        1.0  0.20730  0.05992  0.97331  1.0000
  H   H2        1.0  0.26632  0.06251  0.97592  1.0000
  H   H3        1.0  0.23291  0.08694  0.01841  1.0000
  H   H4        1.0  0.24026  0.98606  0.99931  1.0000
  H   H5        1.0  0.27741  0.98288  0.07237  1.0000
  H   H6        1.0  0.27484  0.04115  0.07759  1.0000
  H   H7        1.0  0.30822  0.01696  0.03493  1.0000
  H   H8        1.0  0.13143  0.99505  0.09758  1.0000
  H   H9        1.0  0.06011  0.96081  0.07548  1.0000
  H   H10       1.0  0.01829  0.91677  0.02047  1.0000
  H   H11       1.0  0.04062  0.90614  0.96718  1.0000
  H   H12       1.0  0.00602  0.99554  0.99007  1.0000
  H   H13       1.0  0.95905  0.01828  0.93809  1.0000
  H   H14       1.0  0.89343  0.95210  0.91120  1.0000
  H   H15       1.0  0.89823  0.00826  0.89454  1.0000
  H   H16       1.0  0.78567  0.00218  0.94740  1.0000
  H   H17       1.0  0.81530  0.01533  0.89821  1.0000
  H   H18       1.0  0.81096  0.95926  0.91595  1.0000
  H   H19       1.0  0.83520  0.93961  0.99202  1.0000
  H   H20       1.0  0.88914  0.95824  0.00873  1.0000
  H   H21       1.0  0.81633  0.95522  0.08288  1.0000
  H   H22       1.0  0.78895  0.01679  0.13127  1.0000
  H   H23       1.0  0.79513  0.09535  0.10644  1.0000
  H   H24       1.0  0.82875  0.11356  0.03286  1.0000
  H   H25       1.0  0.89706  0.05816  0.97675  1.0000
  H   H26       1.0  0.84547  0.07131  0.95026  1.0000
  H   H27       1.0  0.10798  0.95034  0.94037  1.0000
  H   H28       1.0  0.17844  0.98428  0.96228  1.0000
