data_image0
_chemical_formula_structural       C7ONC4OC5H27
_chemical_formula_sum              "C16 O2 N1 H27"
_cell_length_a       30
_cell_length_b       30
_cell_length_c       30
_cell_angle_alpha    90
_cell_angle_beta     90
_cell_angle_gamma    90

_space_group_name_H-M_alt    "P 1"
_space_group_IT_number       1

loop_
  _space_group_symop_operation_xyz
  'x, y, z'

loop_
  _atom_site_type_symbol
  _atom_site_label
  _atom_site_symmetry_multiplicity
  _atom_site_fract_x
  _atom_site_fract_y
  _atom_site_fract_z
  _atom_site_occupancy
  C   C1        1.0  0.85994  0.94614  0.05271  1.0000
  C   C2        1.0  0.89356  0.94672  0.01553  1.0000
  C   C3        1.0  0.89247  0.90661  0.98549  1.0000
  C   C4        1.0  0.92194  0.98112  0.01020  1.0000
  C   C5        1.0  0.95623  0.98597  0.97551  1.0000
  C   C6        1.0  0.97135  0.03232  0.96206  1.0000
  C   C7        1.0  0.01929  0.04222  0.95348  1.0000
  O   O1        1.0  0.03062  0.05510  0.91637  1.0000
  N   N1        1.0  0.04891  0.03726  0.98878  1.0000
  C   C8        1.0  0.03543  0.02821  0.03472  1.0000
  C   C9        1.0  0.06847  0.04750  0.06824  1.0000
  C   C10       1.0  0.11611  0.02987  0.06119  1.0000
  C   C11       1.0  0.12634  0.99099  0.09274  1.0000
  O   O2        1.0  0.17107  0.97637  0.08730  1.0000
  C   C12       1.0  0.12487  0.01659  0.01235  1.0000
  C   C13       1.0  0.09639  0.04349  0.98004  1.0000
  C   C14       1.0  0.94414  0.00377  0.92980  1.0000
  C   C15       1.0  0.96643  0.98158  0.89047  1.0000
  C   C16       1.0  0.89729  0.01922  0.91973  1.0000
  H   H1        1.0  0.86543  0.91721  0.07427  1.0000
  H   H2        1.0  0.82611  0.94426  0.03913  1.0000
  H   H3        1.0  0.86186  0.97604  0.07357  1.0000
  H   H4        1.0  0.89849  0.87626  0.00485  1.0000
  H   H5        1.0  0.85980  0.90382  0.96947  1.0000
  H   H6        1.0  0.91758  0.90789  0.95908  1.0000
  H   H7        1.0  0.91988  0.00851  0.03395  1.0000
  H   H8        1.0  0.98189  0.96040  0.97711  1.0000
  H   H9        1.0  0.95400  0.06082  0.97609  1.0000
  H   H10       1.0  0.03315  0.99196  0.03856  1.0000
  H   H11       1.0  0.00240  0.04234  0.04095  1.0000
  H   H12       1.0  0.06895  0.08389  0.06424  1.0000
  H   H13       1.0  0.05697  0.04113  0.10232  1.0000
  H   H14       1.0  0.13928  0.05700  0.06946  1.0000
  H   H15       1.0  0.10433  0.96262  0.08619  1.0000
  H   H16       1.0  0.12181  0.00084  0.12760  1.0000
  H   H17       1.0  0.19053  0.00118  0.09485  1.0000
  H   H18       1.0  0.11755  0.98106  0.00749  1.0000
  H   H19       1.0  0.16027  0.02116  0.00450  1.0000
  H   H20       1.0  0.10404  0.03374  0.94568  1.0000
  H   H21       1.0  0.10355  0.07920  0.98316  1.0000
  H   H22       1.0  0.97001  0.00520  0.86287  1.0000
  H   H23       1.0  0.94625  0.95346  0.87884  1.0000
  H   H24       1.0  0.99954  0.96859  0.89869  1.0000
  H   H25       1.0  0.89734  0.04138  0.89072  1.0000
  H   H26       1.0  0.88231  0.03763  0.94746  1.0000
  H   H27       1.0  0.87585  0.99065  0.91221  1.0000
