data_image0
_chemical_formula_structural       C5OC7NCOC3H29
_chemical_formula_sum              "C16 O2 N1 H29"
_cell_length_a       30
_cell_length_b       30
_cell_length_c       30
_cell_angle_alpha    90
_cell_angle_beta     90
_cell_angle_gamma    90

_space_group_name_H-M_alt    "P 1"
_space_group_IT_number       1

loop_
  _space_group_symop_operation_xyz
  'x, y, z'

loop_
  _atom_site_type_symbol
  _atom_site_label
  _atom_site_symmetry_multiplicity
  _atom_site_fract_x
  _atom_site_fract_y
  _atom_site_fract_z
  _atom_site_occupancy
  C   C1        1.0  0.14735  0.96493  0.02529  1.0000
  C   C2        1.0  0.10928  0.99872  0.02135  1.0000
  C   C3        1.0  0.12161  0.04152  0.04610  1.0000
  C   C4        1.0  0.09863  0.00704  0.97183  1.0000
  C   C5        1.0  0.06137  0.04073  0.96172  1.0000
  O   O1        1.0  0.05699  0.04449  0.91450  1.0000
  C   C6        1.0  0.01559  0.03132  0.98302  1.0000
  C   C7        1.0  0.98062  0.00572  0.95455  1.0000
  C   C8        1.0  0.99658  0.95863  0.94111  1.0000
  C   C9        1.0  0.00465  0.92512  0.97880  1.0000
  C   C10       1.0  0.97498  0.92876  0.01989  1.0000
  C   C11       1.0  0.92507  0.93041  0.01094  1.0000
  C   C12       1.0  0.90948  0.96460  0.97669  1.0000
  N   N1        1.0  0.93552  0.00596  0.97606  1.0000
  C   C13       1.0  0.91436  0.04726  0.98170  1.0000
  O   O2        1.0  0.92917  0.08285  0.96819  1.0000
  C   C14       1.0  0.87110  0.04781  0.00619  1.0000
  C   C15       1.0  0.86838  0.03298  0.05430  1.0000
  C   C16       1.0  0.86417  0.08146  0.04318  1.0000
  H   H1        1.0  0.13858  0.93355  0.00881  1.0000
  H   H2        1.0  0.15448  0.95744  0.06030  1.0000
  H   H3        1.0  0.17799  0.97759  0.00999  1.0000
  H   H4        1.0  0.08018  0.98399  0.03776  1.0000
  H   H5        1.0  0.14949  0.05862  0.02989  1.0000
  H   H6        1.0  0.09338  0.06457  0.04757  1.0000
  H   H7        1.0  0.13136  0.03422  0.08052  1.0000
  H   H8        1.0  0.12904  0.01873  0.95502  1.0000
  H   H9        1.0  0.09119  0.97524  0.95551  1.0000
  H   H10       1.0  0.07239  0.07353  0.97355  1.0000
  H   H11       1.0  0.08428  0.05786  0.90319  1.0000
  H   H12       1.0  0.01931  0.01616  0.01590  1.0000
  H   H13       1.0  0.00186  0.06433  0.99053  1.0000
  H   H14       1.0  0.97589  0.02439  0.92340  1.0000
  H   H15       1.0  0.97269  0.94404  0.91760  1.0000
  H   H16       1.0  0.02714  0.96114  0.92127  1.0000
  H   H17       1.0  0.03932  0.92785  0.98995  1.0000
  H   H18       1.0  0.00158  0.89143  0.96486  1.0000
  H   H19       1.0  0.98188  0.90018  0.04167  1.0000
  H   H20       1.0  0.98444  0.95803  0.03953  1.0000
  H   H21       1.0  0.90847  0.93740  0.04278  1.0000
  H   H22       1.0  0.91329  0.89737  0.00062  1.0000
  H   H23       1.0  0.87416  0.97126  0.98285  1.0000
  H   H24       1.0  0.90960  0.95049  0.94303  1.0000
  H   H25       1.0  0.84236  0.04244  0.98489  1.0000
  H   H26       1.0  0.83869  0.01532  0.06483  1.0000
  H   H27       1.0  0.89872  0.02218  0.07072  1.0000
  H   H28       1.0  0.83166  0.09695  0.04589  1.0000
  H   H29       1.0  0.89169  0.10339  0.05152  1.0000
