data_image0
_chemical_formula_structural       C3ONSO2C2NC10FC7H23
_chemical_formula_sum              "C22 O3 N2 S1 F1 H23"
_cell_length_a       30
_cell_length_b       30
_cell_length_c       30
_cell_angle_alpha    90
_cell_angle_beta     90
_cell_angle_gamma    90

_space_group_name_H-M_alt    "P 1"
_space_group_IT_number       1

loop_
  _space_group_symop_operation_xyz
  'x, y, z'

loop_
  _atom_site_type_symbol
  _atom_site_label
  _atom_site_symmetry_multiplicity
  _atom_site_fract_x
  _atom_site_fract_y
  _atom_site_fract_z
  _atom_site_occupancy
  C   C1        1.0  0.11240  0.03161  0.87944  1.0000
  C   C2        1.0  0.08455  0.02281  0.92122  1.0000
  C   C3        1.0  0.03882  0.00498  0.90950  1.0000
  O   O1        1.0  0.03926  0.97375  0.87737  1.0000
  N   N1        1.0  0.00038  0.01452  0.92578  1.0000
  S   S1        1.0  0.99632  0.05169  0.96437  1.0000
  O   O2        1.0  0.99909  0.09600  0.94557  1.0000
  O   O3        1.0  0.02113  0.03854  0.00359  1.0000
  C   C4        1.0  0.94096  0.04440  0.97837  1.0000
  C   C5        1.0  0.90493  0.06784  0.96195  1.0000
  N   N2        1.0  0.86721  0.05140  0.98195  1.0000
  C   C6        1.0  0.82292  0.06922  0.97483  1.0000
  C   C7        1.0  0.87824  0.01681  0.01032  1.0000
  C   C8        1.0  0.84620  0.99152  0.03690  1.0000
  C   C9        1.0  0.84787  0.99340  0.08348  1.0000
  C   C10       1.0  0.81741  0.96928  0.10912  1.0000
  C   C11       1.0  0.78525  0.94295  0.08836  1.0000
  C   C12       1.0  0.78356  0.94063  0.04197  1.0000
  C   C13       1.0  0.81399  0.96477  0.01631  1.0000
  C   C14       1.0  0.92424  0.01246  0.00888  1.0000
  C   C15       1.0  0.10695  0.99032  0.95380  1.0000
  F   F1        1.0  0.12113  0.95381  0.93055  1.0000
  C   C16       1.0  0.14725  0.01104  0.97732  1.0000
  C   C17       1.0  0.16185  0.98384  0.01711  1.0000
  C   C18       1.0  0.14786  0.99544  0.06014  1.0000
  C   C19       1.0  0.16099  0.97001  0.09682  1.0000
  C   C20       1.0  0.18803  0.93271  0.09082  1.0000
  C   C21       1.0  0.20185  0.92071  0.04812  1.0000
  C   C22       1.0  0.18876  0.94610  0.01139  1.0000
  H   H1        1.0  0.09410  0.05287  0.85605  1.0000
  H   H2        1.0  0.14354  0.04864  0.88788  1.0000
  H   H3        1.0  0.12088  0.00072  0.86193  1.0000
  H   H4        1.0  0.08034  0.05511  0.93766  1.0000
  H   H5        1.0  0.00894  0.96349  0.87240  1.0000
  H   H6        1.0  0.90350  0.09499  0.93821  1.0000
  H   H7        1.0  0.82547  0.10176  0.95862  1.0000
  H   H8        1.0  0.80462  0.04613  0.95345  1.0000
  H   H9        1.0  0.80636  0.07316  0.00703  1.0000
  H   H10       1.0  0.87285  0.01380  0.10004  1.0000
  H   H11       1.0  0.81888  0.97100  0.14528  1.0000
  H   H12       1.0  0.76165  0.92407  0.10834  1.0000
  H   H13       1.0  0.75868  0.91987  0.02577  1.0000
  H   H14       1.0  0.81268  0.96221  0.98019  1.0000
  H   H15       1.0  0.94364  0.98852  0.02774  1.0000
  H   H16       1.0  0.08277  0.97825  0.97840  1.0000
  H   H17       1.0  0.13942  0.04496  0.98854  1.0000
  H   H18       1.0  0.17543  0.01386  0.95421  1.0000
  H   H19       1.0  0.12651  0.02429  0.06539  1.0000
  H   H20       1.0  0.15001  0.97926  0.13008  1.0000
  H   H21       1.0  0.19818  0.91289  0.11939  1.0000
  H   H22       1.0  0.22269  0.89148  0.04336  1.0000
  H   H23       1.0  0.19943  0.93614  0.97819  1.0000
