data_image0
_chemical_formula_structural       C3NCOCNCOC5NOC6OCF2CH19
_chemical_formula_sum              "C19 N3 O4 F2 H19"
_cell_length_a       30
_cell_length_b       30
_cell_length_c       30
_cell_angle_alpha    90
_cell_angle_beta     90
_cell_angle_gamma    90

_space_group_name_H-M_alt    "P 1"
_space_group_IT_number       1

loop_
  _space_group_symop_operation_xyz
  'x, y, z'

loop_
  _atom_site_type_symbol
  _atom_site_label
  _atom_site_symmetry_multiplicity
  _atom_site_fract_x
  _atom_site_fract_y
  _atom_site_fract_z
  _atom_site_occupancy
  C   C1        1.0  0.94683  0.89596  0.93761  1.0000
  C   C2        1.0  0.95106  0.92268  0.98076  1.0000
  C   C3        1.0  0.96517  0.89280  0.01955  1.0000
  N   N1        1.0  0.98095  0.96086  0.97548  1.0000
  C   C4        1.0  0.02582  0.95781  0.96478  1.0000
  O   O1        1.0  0.04896  0.92439  0.96654  1.0000
  C   C5        1.0  0.04018  0.00454  0.95015  1.0000
  N   N2        1.0  0.07914  0.01998  0.97263  1.0000
  C   C6        1.0  0.12093  0.01194  0.95563  1.0000
  O   O2        1.0  0.12789  0.99863  0.91765  1.0000
  C   C7        1.0  0.15814  0.02078  0.98776  1.0000
  C   C8        1.0  0.20206  0.01474  0.97442  1.0000
  C   C9        1.0  0.23559  0.02315  0.00533  1.0000
  C   C10       1.0  0.22414  0.03711  0.04807  1.0000
  C   C11       1.0  0.17936  0.04218  0.05842  1.0000
  N   N3        1.0  0.14585  0.03436  0.02940  1.0000
  O   O3        1.0  0.00397  0.03237  0.96331  1.0000
  C   C12       1.0  0.96523  0.00466  0.96464  1.0000
  C   C13       1.0  0.93306  0.02363  0.99838  1.0000
  C   C14       1.0  0.94567  0.02978  0.04298  1.0000
  C   C15       1.0  0.91565  0.04735  0.07381  1.0000
  C   C16       1.0  0.87249  0.05882  0.06065  1.0000
  C   C17       1.0  0.85915  0.05254  0.01655  1.0000
  O   O4        1.0  0.81813  0.06228  0.99929  1.0000
  C   C18       1.0  0.78353  0.07055  0.03039  1.0000
  F   F1        1.0  0.74479  0.07279  0.00713  1.0000
  F   F2        1.0  0.78972  0.11119  0.04913  1.0000
  C   C19       1.0  0.88958  0.03536  0.98565  1.0000
  H   H1        1.0  0.92237  0.86913  0.94138  1.0000
  H   H2        1.0  0.97861  0.88087  0.92787  1.0000
  H   H3        1.0  0.93590  0.91738  0.91014  1.0000
  H   H4        1.0  0.91796  0.93573  0.98904  1.0000
  H   H5        1.0  0.99695  0.87607  0.01317  1.0000
  H   H6        1.0  0.96883  0.91231  0.05020  1.0000
  H   H7        1.0  0.94012  0.86695  0.02559  1.0000
  H   H8        1.0  0.04395  0.00542  0.91385  1.0000
  H   H9        1.0  0.07742  0.02696  0.00564  1.0000
  H   H10       1.0  0.20990  0.00372  0.94087  1.0000
  H   H11       1.0  0.27036  0.01878  0.99616  1.0000
  H   H12       1.0  0.24961  0.04388  0.07284  1.0000
  H   H13       1.0  0.16907  0.05299  0.09143  1.0000
  H   H14       1.0  0.95062  0.00384  0.93111  1.0000
  H   H15       1.0  0.97926  0.02118  0.05371  1.0000
  H   H16       1.0  0.92607  0.05248  0.10815  1.0000
  H   H17       1.0  0.85059  0.07328  0.08558  1.0000
  H   H18       1.0  0.78039  0.04466  0.05596  1.0000
  H   H19       1.0  0.87897  0.03115  0.95120  1.0000
