data_image0
_chemical_formula_structural       C10ClCNCOC3O2H20
_chemical_formula_sum              "C15 Cl1 N1 O3 H20"
_cell_length_a       30
_cell_length_b       30
_cell_length_c       30
_cell_angle_alpha    90
_cell_angle_beta     90
_cell_angle_gamma    90

_space_group_name_H-M_alt    "P 1"
_space_group_IT_number       1

loop_
  _space_group_symop_operation_xyz
  'x, y, z'

loop_
  _atom_site_type_symbol
  _atom_site_label
  _atom_site_symmetry_multiplicity
  _atom_site_fract_x
  _atom_site_fract_y
  _atom_site_fract_z
  _atom_site_occupancy
  C   C1        1.0  0.01851  0.03362  0.91550  1.0000
  C   C2        1.0  0.00086  0.98889  0.93150  1.0000
  C   C3        1.0  0.03600  0.95158  0.93458  1.0000
  C   C4        1.0  0.07895  0.95779  0.96241  1.0000
  C   C5        1.0  0.11394  0.98656  0.93906  1.0000
  C   C6        1.0  0.07039  0.96936  0.01098  1.0000
  C   C7        1.0  0.05382  0.93608  0.03961  1.0000
  C   C8        1.0  0.04424  0.94530  0.08423  1.0000
  C   C9        1.0  0.05103  0.98808  0.10104  1.0000
  C   C10       1.0  0.06763  0.02132  0.07314  1.0000
  Cl  Cl1       1.0  0.07573  0.07436  0.09367  1.0000
  C   C11       1.0  0.07735  0.01222  0.02853  1.0000
  N   N1        1.0  0.97570  0.99388  0.97272  1.0000
  C   C12       1.0  0.93310  0.01074  0.97372  1.0000
  O   O1        1.0  0.91166  0.01989  0.94036  1.0000
  C   C13       1.0  0.91557  0.01616  0.02070  1.0000
  C   C14       1.0  0.86897  0.03663  0.02116  1.0000
  C   C15       1.0  0.85345  0.04365  0.06817  1.0000
  O   O2        1.0  0.86225  0.02057  0.10050  1.0000
  O   O3        1.0  0.82560  0.07867  0.07198  1.0000
  H   H1        1.0  0.03936  0.02975  0.88581  1.0000
  H   H2        1.0  0.99095  0.05569  0.90658  1.0000
  H   H3        1.0  0.03749  0.05078  0.94144  1.0000
  H   H4        1.0  0.97678  0.97774  0.90630  1.0000
  H   H5        1.0  0.04619  0.94322  0.90041  1.0000
  H   H6        1.0  0.01898  0.92175  0.94702  1.0000
  H   H7        1.0  0.09454  0.92468  0.96318  1.0000
  H   H8        1.0  0.10441  0.02153  0.93630  1.0000
  H   H9        1.0  0.14549  0.98549  0.95737  1.0000
  H   H10       1.0  0.12031  0.97407  0.90533  1.0000
  H   H11       1.0  0.04815  0.90238  0.02717  1.0000
  H   H12       1.0  0.03155  0.91902  0.10592  1.0000
  H   H13       1.0  0.04362  0.99517  0.13579  1.0000
  H   H14       1.0  0.09008  0.03905  0.00781  1.0000
  H   H15       1.0  0.99221  0.99158  0.00221  1.0000
  H   H16       1.0  0.91503  0.98299  0.03657  1.0000
  H   H17       1.0  0.93901  0.03728  0.03965  1.0000
  H   H18       1.0  0.84494  0.01488  0.00443  1.0000
  H   H19       1.0  0.86915  0.06881  0.00366  1.0000
  H   H20       1.0  0.81702  0.07878  0.10348  1.0000
