data_image0
_chemical_formula_structural       C6ClC2NC2OC2SCONH15
_chemical_formula_sum              "C13 Cl1 N2 O2 S1 H15"
_cell_length_a       30
_cell_length_b       30
_cell_length_c       30
_cell_angle_alpha    90
_cell_angle_beta     90
_cell_angle_gamma    90

_space_group_name_H-M_alt    "P 1"
_space_group_IT_number       1

loop_
  _space_group_symop_operation_xyz
  'x, y, z'

loop_
  _atom_site_type_symbol
  _atom_site_label
  _atom_site_symmetry_multiplicity
  _atom_site_fract_x
  _atom_site_fract_y
  _atom_site_fract_z
  _atom_site_occupancy
  C   C1        1.0  0.02479  0.92731  0.04115  1.0000
  C   C2        1.0  0.02596  0.95382  0.99736  1.0000
  C   C3        1.0  0.06528  0.98574  0.99327  1.0000
  C   C4        1.0  0.09061  0.98636  0.95380  1.0000
  C   C5        1.0  0.12661  0.01552  0.94889  1.0000
  C   C6        1.0  0.13766  0.04452  0.98337  1.0000
  Cl  Cl1       1.0  0.18191  0.08047  0.97732  1.0000
  C   C7        1.0  0.11301  0.04458  0.02265  1.0000
  C   C8        1.0  0.07703  0.01536  0.02753  1.0000
  N   N1        1.0  0.98300  0.97498  0.98516  1.0000
  C   C9        1.0  0.97299  0.97525  0.93751  1.0000
  C   C10       1.0  0.96134  0.00284  0.01556  1.0000
  O   O1        1.0  0.97574  0.00970  0.05347  1.0000
  C   C11       1.0  0.91695  0.02456  0.00151  1.0000
  C   C12       1.0  0.87940  0.99050  0.00039  1.0000
  S   S1        1.0  0.82978  0.02363  0.01068  1.0000
  C   C13       1.0  0.85943  0.06318  0.04169  1.0000
  O   O2        1.0  0.84252  0.09004  0.06695  1.0000
  N   N2        1.0  0.90373  0.05850  0.03329  1.0000
  H   H1        1.0  0.02257  0.94821  0.07091  1.0000
  H   H2        1.0  0.99627  0.90452  0.04152  1.0000
  H   H3        1.0  0.05519  0.90734  0.04463  1.0000
  H   H4        1.0  0.03119  0.92766  0.97221  1.0000
  H   H5        1.0  0.08257  0.96395  0.92644  1.0000
  H   H6        1.0  0.14583  0.01542  0.91819  1.0000
  H   H7        1.0  0.12144  0.06723  0.04964  1.0000
  H   H8        1.0  0.05818  0.01627  0.05852  1.0000
  H   H9        1.0  0.97774  0.94175  0.92392  1.0000
  H   H10       1.0  0.93893  0.98542  0.93025  1.0000
  H   H11       1.0  0.99557  0.99859  0.92093  1.0000
  H   H12       1.0  0.92118  0.04202  0.96972  1.0000
  H   H13       1.0  0.87681  0.97296  0.96859  1.0000
  H   H14       1.0  0.88268  0.96572  0.02701  1.0000
  H   H15       1.0  0.92613  0.07607  0.05147  1.0000
