data_image0
_chemical_formula_structural       C4NCOC6NC5FC5H25
_chemical_formula_sum              "C21 N2 O1 F1 H25"
_cell_length_a       30
_cell_length_b       30
_cell_length_c       30
_cell_angle_alpha    90
_cell_angle_beta     90
_cell_angle_gamma    90

_space_group_name_H-M_alt    "P 1"
_space_group_IT_number       1

loop_
  _space_group_symop_operation_xyz
  'x, y, z'

loop_
  _atom_site_type_symbol
  _atom_site_label
  _atom_site_symmetry_multiplicity
  _atom_site_fract_x
  _atom_site_fract_y
  _atom_site_fract_z
  _atom_site_occupancy
  C   C1        1.0  0.20641  0.04523  0.97254  1.0000
  C   C2        1.0  0.19724  0.03474  0.02158  1.0000
  C   C3        1.0  0.20068  0.98460  0.03004  1.0000
  C   C4        1.0  0.15238  0.05400  0.03718  1.0000
  N   N1        1.0  0.11453  0.03652  0.01274  1.0000
  C   C5        1.0  0.08684  0.00426  0.03017  1.0000
  O   O1        1.0  0.09119  0.98813  0.06745  1.0000
  C   C6        1.0  0.04927  0.98978  0.00122  1.0000
  C   C7        1.0  0.05305  0.98858  0.95475  1.0000
  C   C8        1.0  0.01704  0.97437  0.92900  1.0000
  C   C9        1.0  0.97736  0.96125  0.94949  1.0000
  C   C10       1.0  0.97293  0.96220  0.99603  1.0000
  C   C11       1.0  0.93057  0.94688  0.01905  1.0000
  N   N2        1.0  0.88946  0.96481  0.99904  1.0000
  C   C12       1.0  0.88167  0.01115  0.99777  1.0000
  C   C13       1.0  0.85190  0.02994  0.96668  1.0000
  C   C14       1.0  0.84347  0.07585  0.96489  1.0000
  C   C15       1.0  0.86468  0.10433  0.99456  1.0000
  C   C16       1.0  0.89388  0.08651  0.02561  1.0000
  F   F1        1.0  0.91431  0.11371  0.05456  1.0000
  C   C17       1.0  0.90231  0.04082  0.02747  1.0000
  C   C18       1.0  0.86160  0.93323  0.97364  1.0000
  C   C19       1.0  0.84487  0.89058  0.99431  1.0000
  C   C20       1.0  0.81278  0.92734  0.98402  1.0000
  C   C21       1.0  0.00959  0.97602  0.02166  1.0000
  H   H1        1.0  0.23988  0.03414  0.96308  1.0000
  H   H2        1.0  0.20445  0.08116  0.96638  1.0000
  H   H3        1.0  0.18255  0.02860  0.95048  1.0000
  H   H4        1.0  0.22336  0.05101  0.04138  1.0000
  H   H5        1.0  0.19418  0.97688  0.06512  1.0000
  H   H6        1.0  0.23421  0.97254  0.02205  1.0000
  H   H7        1.0  0.17700  0.96577  0.00963  1.0000
  H   H8        1.0  0.14793  0.04781  0.07290  1.0000
  H   H9        1.0  0.15210  0.09020  0.03234  1.0000
  H   H10       1.0  0.10635  0.05144  0.98368  1.0000
  H   H11       1.0  0.08397  0.99757  0.93823  1.0000
  H   H12       1.0  0.01988  0.97320  0.89289  1.0000
  H   H13       1.0  0.94969  0.95027  0.92881  1.0000
  H   H14       1.0  0.93129  0.95519  0.05465  1.0000
  H   H15       1.0  0.93054  0.91032  0.01778  1.0000
  H   H16       1.0  0.83487  0.00889  0.94262  1.0000
  H   H17       1.0  0.82039  0.08903  0.94029  1.0000
  H   H18       1.0  0.85866  0.13996  0.99382  1.0000
  H   H19       1.0  0.92504  0.02941  0.05311  1.0000
  H   H20       1.0  0.87123  0.93146  0.93874  1.0000
  H   H21       1.0  0.84405  0.86103  0.97357  1.0000
  H   H22       1.0  0.85193  0.88410  0.02913  1.0000
  H   H23       1.0  0.79893  0.94588  0.01177  1.0000
  H   H24       1.0  0.79009  0.92290  0.95630  1.0000
  H   H25       1.0  0.00740  0.97641  0.05791  1.0000
