data_image0
_chemical_formula_structural       C6N2CONC8H25
_chemical_formula_sum              "C15 N3 O1 H25"
_cell_length_a       30
_cell_length_b       30
_cell_length_c       30
_cell_angle_alpha    90
_cell_angle_beta     90
_cell_angle_gamma    90

_space_group_name_H-M_alt    "P 1"
_space_group_IT_number       1

loop_
  _space_group_symop_operation_xyz
  'x, y, z'

loop_
  _atom_site_type_symbol
  _atom_site_label
  _atom_site_symmetry_multiplicity
  _atom_site_fract_x
  _atom_site_fract_y
  _atom_site_fract_z
  _atom_site_occupancy
  C   C1        1.0  0.10971  0.03766  0.93667  1.0000
  C   C2        1.0  0.07073  0.06880  0.94680  1.0000
  C   C3        1.0  0.07013  0.10683  0.91266  1.0000
  C   C4        1.0  0.07172  0.08865  0.99437  1.0000
  C   C5        1.0  0.06947  0.05613  0.03414  1.0000
  C   C6        1.0  0.11307  0.03464  0.04290  1.0000
  N   N1        1.0  0.14742  0.01763  0.04847  1.0000
  N   N2        1.0  0.03396  0.02334  0.02822  1.0000
  C   C7        1.0  0.01324  0.00558  0.06486  1.0000
  O   O1        1.0  0.02183  0.01885  0.10260  1.0000
  N   N3        1.0  0.98183  0.97291  0.05593  1.0000
  C   C8        1.0  0.96076  0.95063  0.09384  1.0000
  C   C9        1.0  0.91073  0.94633  0.08696  1.0000
  C   C10       1.0  0.89894  0.92073  0.04456  1.0000
  C   C11       1.0  0.93794  0.91655  0.01161  1.0000
  C   C12       1.0  0.92183  0.91531  0.96331  1.0000
  C   C13       1.0  0.91669  0.96420  0.94986  1.0000
  C   C14       1.0  0.94367  0.99138  0.98359  1.0000
  C   C15       1.0  0.96925  0.95705  0.01151  1.0000
  H   H1        1.0  0.10966  0.02785  0.90148  1.0000
  H   H2        1.0  0.14173  0.05370  0.94373  1.0000
  H   H3        1.0  0.10753  0.00691  0.95611  1.0000
  H   H4        1.0  0.03971  0.04998  0.94239  1.0000
  H   H5        1.0  0.10051  0.12698  0.91475  1.0000
  H   H6        1.0  0.04153  0.12883  0.91820  1.0000
  H   H7        1.0  0.06757  0.09375  0.87867  1.0000
  H   H8        1.0  0.04273  0.11090  0.99721  1.0000
  H   H9        1.0  0.10120  0.11008  0.99795  1.0000
  H   H10       1.0  0.06146  0.07632  0.06359  1.0000
  H   H11       1.0  0.03874  0.00162  0.00312  1.0000
  H   H12       1.0  0.96711  0.96866  0.12493  1.0000
  H   H13       1.0  0.97627  0.91771  0.09722  1.0000
  H   H14       1.0  0.89535  0.93011  0.11585  1.0000
  H   H15       1.0  0.89615  0.97983  0.08488  1.0000
  H   H16       1.0  0.88782  0.88703  0.05345  1.0000
  H   H17       1.0  0.86989  0.93667  0.02908  1.0000
  H   H18       1.0  0.95665  0.88618  0.01967  1.0000
  H   H19       1.0  0.89091  0.89645  0.95888  1.0000
  H   H20       1.0  0.94734  0.89967  0.94227  1.0000
  H   H21       1.0  0.92867  0.96953  0.91578  1.0000
  H   H22       1.0  0.88162  0.97435  0.95079  1.0000
  H   H23       1.0  0.96596  0.01486  0.96678  1.0000
  H   H24       1.0  0.92109  0.01118  0.00445  1.0000
  H   H25       1.0  0.99988  0.94767  0.99381  1.0000
