data_image0
_chemical_formula_structural       C3N2CNC6ClC3N2H14
_chemical_formula_sum              "C13 N5 Cl1 H14"
_cell_length_a       30
_cell_length_b       30
_cell_length_c       30
_cell_angle_alpha    90
_cell_angle_beta     90
_cell_angle_gamma    90

_space_group_name_H-M_alt    "P 1"
_space_group_IT_number       1

loop_
  _space_group_symop_operation_xyz
  'x, y, z'

loop_
  _atom_site_type_symbol
  _atom_site_label
  _atom_site_symmetry_multiplicity
  _atom_site_fract_x
  _atom_site_fract_y
  _atom_site_fract_z
  _atom_site_occupancy
  C   C1        1.0  0.13853  0.00769  0.94735  1.0000
  C   C2        1.0  0.14480  0.00574  0.99728  1.0000
  C   C3        1.0  0.17743  0.03828  0.01737  1.0000
  N   N1        1.0  0.12364  0.97910  0.02418  1.0000
  N   N2        1.0  0.09255  0.95161  0.00507  1.0000
  C   C4        1.0  0.04777  0.96665  0.00471  1.0000
  N   N3        1.0  0.03824  0.00992  0.99800  1.0000
  C   C5        1.0  0.99488  0.02129  0.99815  1.0000
  C   C6        1.0  0.96028  0.99155  0.00438  1.0000
  C   C7        1.0  0.91380  0.00627  0.00418  1.0000
  C   C8        1.0  0.89366  0.02225  0.04330  1.0000
  C   C9        1.0  0.84921  0.03622  0.04317  1.0000
  C   C10       1.0  0.82457  0.03440  0.00386  1.0000
  Cl  Cl1       1.0  0.76988  0.05157  0.00368  1.0000
  C   C11       1.0  0.84398  0.01876  0.96470  1.0000
  C   C12       1.0  0.88843  0.00479  0.96486  1.0000
  C   C13       1.0  0.97368  0.94760  0.01068  1.0000
  N   N4        1.0  0.94235  0.91342  0.01768  1.0000
  N   N5        1.0  0.01664  0.93512  0.01079  1.0000
  H   H1        1.0  0.13056  0.97493  0.93358  1.0000
  H   H2        1.0  0.16925  0.01939  0.93158  1.0000
  H   H3        1.0  0.11177  0.03114  0.93953  1.0000
  H   H4        1.0  0.21059  0.03224  0.00351  1.0000
  H   H5        1.0  0.17881  0.03454  0.05360  1.0000
  H   H6        1.0  0.16703  0.07226  0.00927  1.0000
  H   H7        1.0  0.08952  0.92123  0.02014  1.0000
  H   H8        1.0  0.98857  0.05658  0.99286  1.0000
  H   H9        1.0  0.91255  0.02395  0.07427  1.0000
  H   H10       1.0  0.83413  0.04851  0.07374  1.0000
  H   H11       1.0  0.82481  0.01745  0.93397  1.0000
  H   H12       1.0  0.90322  0.99282  0.93394  1.0000
  H   H13       1.0  0.92391  0.92060  0.04519  1.0000
  H   H14       1.0  0.92097  0.91215  0.99145  1.0000
