data_image0
_chemical_formula_structural       C10NC5NCSCH26
_chemical_formula_sum              "C17 N2 S1 H26"
_cell_length_a       30
_cell_length_b       30
_cell_length_c       30
_cell_angle_alpha    90
_cell_angle_beta     90
_cell_angle_gamma    90

_space_group_name_H-M_alt    "P 1"
_space_group_IT_number       1

loop_
  _space_group_symop_operation_xyz
  'x, y, z'

loop_
  _atom_site_type_symbol
  _atom_site_label
  _atom_site_symmetry_multiplicity
  _atom_site_fract_x
  _atom_site_fract_y
  _atom_site_fract_z
  _atom_site_occupancy
  C   C1        1.0  0.82219  0.04631  0.99782  1.0000
  C   C2        1.0  0.84706  0.00505  0.98111  1.0000
  C   C3        1.0  0.84167  0.00119  0.93050  1.0000
  C   C4        1.0  0.89699  0.00586  0.99322  1.0000
  C   C5        1.0  0.90580  0.00323  0.04342  1.0000
  C   C6        1.0  0.95519  0.00625  0.05615  1.0000
  C   C7        1.0  0.98433  0.96703  0.04060  1.0000
  C   C8        1.0  0.96651  0.92152  0.05532  1.0000
  C   C9        1.0  0.03419  0.97418  0.05430  1.0000
  C   C10       1.0  0.04790  0.95593  0.00818  1.0000
  N   N1        1.0  0.08068  0.98529  0.98715  1.0000
  C   C11       1.0  0.12555  0.97352  0.00217  1.0000
  C   C12       1.0  0.15925  0.00332  0.98021  1.0000
  C   C13       1.0  0.17370  0.04493  0.99382  1.0000
  C   C14       1.0  0.20609  0.06344  0.96432  1.0000
  C   C15       1.0  0.22693  0.10603  0.96977  1.0000
  N   N2        1.0  0.24377  0.14055  0.97436  1.0000
  C   C16       1.0  0.21540  0.03532  0.92925  1.0000
  S   S1        1.0  0.18523  0.98699  0.93197  1.0000
  C   C17       1.0  0.00105  0.96885  0.99124  1.0000
  H   H1        1.0  0.78750  0.04599  0.98642  1.0000
  H   H2        1.0  0.83776  0.07699  0.98561  1.0000
  H   H3        1.0  0.82147  0.04761  0.03425  1.0000
  H   H4        1.0  0.83176  0.97549  0.99628  1.0000
  H   H5        1.0  0.85796  0.97101  0.91797  1.0000
  H   H6        1.0  0.80639  0.99934  0.92130  1.0000
  H   H7        1.0  0.85635  0.02991  0.91338  1.0000
  H   H8        1.0  0.91253  0.03603  0.97960  1.0000
  H   H9        1.0  0.91293  0.97735  0.97693  1.0000
  H   H10       1.0  0.89095  0.97273  0.05694  1.0000
  H   H11       1.0  0.88891  0.03102  0.06006  1.0000
  H   H12       1.0  0.96876  0.03783  0.04358  1.0000
  H   H13       1.0  0.95706  0.00832  0.09265  1.0000
  H   H14       1.0  0.93555  0.91321  0.03789  1.0000
  H   H15       1.0  0.95991  0.92113  0.09123  1.0000
  H   H16       1.0  0.99020  0.89464  0.04827  1.0000
  H   H17       1.0  0.04306  0.00912  0.06064  1.0000
  H   H18       1.0  0.04583  0.95448  0.08273  1.0000
  H   H19       1.0  0.05486  0.92011  0.00673  1.0000
  H   H20       1.0  0.07543  0.01848  0.99205  1.0000
  H   H21       1.0  0.12834  0.97739  0.03844  1.0000
  H   H22       1.0  0.13284  0.93851  0.99449  1.0000
  H   H23       1.0  0.16140  0.06132  0.02359  1.0000
  H   H24       1.0  0.23840  0.04056  0.90197  1.0000
  H   H25       1.0  0.99837  0.00199  0.97597  1.0000
  H   H26       1.0  0.98598  0.94466  0.96846  1.0000
