data_image0
_chemical_formula_structural       C3N2C3SCNCOC6OCOCOH17
_chemical_formula_sum              "C16 N3 S1 O4 H17"
_cell_length_a       30
_cell_length_b       30
_cell_length_c       30
_cell_angle_alpha    90
_cell_angle_beta     90
_cell_angle_gamma    90

_space_group_name_H-M_alt    "P 1"
_space_group_IT_number       1

loop_
  _space_group_symop_operation_xyz
  'x, y, z'

loop_
  _atom_site_type_symbol
  _atom_site_label
  _atom_site_symmetry_multiplicity
  _atom_site_fract_x
  _atom_site_fract_y
  _atom_site_fract_z
  _atom_site_occupancy
  C   C1        1.0  0.82527  0.02437  0.03724  1.0000
  C   C2        1.0  0.84336  0.02833  0.98973  1.0000
  C   C3        1.0  0.81324  0.00357  0.95675  1.0000
  N   N1        1.0  0.89035  0.01313  0.98806  1.0000
  N   N2        1.0  0.89481  0.96754  0.98363  1.0000
  C   C4        1.0  0.92283  0.94258  0.00466  1.0000
  C   C5        1.0  0.95889  0.95305  0.03635  1.0000
  C   C6        1.0  0.99916  0.96193  0.01905  1.0000
  S   S1        1.0  0.04453  0.97611  0.05145  1.0000
  C   C7        1.0  0.07122  0.01549  0.01753  1.0000
  N   N3        1.0  0.11663  0.01219  0.01056  1.0000
  C   C8        1.0  0.14658  0.98107  0.02637  1.0000
  O   O1        1.0  0.13999  0.95024  0.05205  1.0000
  C   C9        1.0  0.19274  0.98875  0.00956  1.0000
  C   C10       1.0  0.21717  0.95128  0.98638  1.0000
  C   C11       1.0  0.20259  0.99128  0.96019  1.0000
  C   C12       1.0  0.04988  0.05058  0.99884  1.0000
  C   C13       1.0  0.00249  0.06021  0.00095  1.0000
  C   C14       1.0  0.97074  0.03561  0.98059  1.0000
  O   O2        1.0  0.98106  0.00014  0.95143  1.0000
  C   C15       1.0  0.00335  0.96467  0.96968  1.0000
  O   O3        1.0  0.02296  0.93666  0.94746  1.0000
  C   C16       1.0  0.92315  0.04623  0.99110  1.0000
  O   O4        1.0  0.91404  0.08490  0.00212  1.0000
  H   H1        1.0  0.82514  0.98964  0.04852  1.0000
  H   H2        1.0  0.84581  0.04344  0.06062  1.0000
  H   H3        1.0  0.79112  0.03708  0.03926  1.0000
  H   H4        1.0  0.84225  0.06364  0.98030  1.0000
  H   H5        1.0  0.77979  0.01819  0.95650  1.0000
  H   H6        1.0  0.80978  0.96824  0.96529  1.0000
  H   H7        1.0  0.82672  0.00569  0.92289  1.0000
  H   H8        1.0  0.91973  0.90645  0.99808  1.0000
  H   H9        1.0  0.95180  0.95125  0.07164  1.0000
  H   H10       1.0  0.13024  0.03549  0.99033  1.0000
  H   H11       1.0  0.21283  0.00902  0.03181  1.0000
  H   H12       1.0  0.25237  0.94725  0.99346  1.0000
  H   H13       1.0  0.19955  0.92009  0.98130  1.0000
  H   H14       1.0  0.17573  0.98639  0.93648  1.0000
  H   H15       1.0  0.22813  0.01432  0.94912  1.0000
  H   H16       1.0  0.06861  0.07545  0.98017  1.0000
  H   H17       1.0  0.99338  0.08844  0.02191  1.0000
