data_image0
_chemical_formula_structural       C4NC2N3C2NC3N2CSH13
_chemical_formula_sum              "C12 N7 S1 H13"
_cell_length_a       30
_cell_length_b       30
_cell_length_c       30
_cell_angle_alpha    90
_cell_angle_beta     90
_cell_angle_gamma    90

_space_group_name_H-M_alt    "P 1"
_space_group_IT_number       1

loop_
  _space_group_symop_operation_xyz
  'x, y, z'

loop_
  _atom_site_type_symbol
  _atom_site_label
  _atom_site_symmetry_multiplicity
  _atom_site_fract_x
  _atom_site_fract_y
  _atom_site_fract_z
  _atom_site_occupancy
  C   C1        1.0  0.16244  0.00449  0.03515  1.0000
  C   C2        1.0  0.15230  0.03006  0.99224  1.0000
  C   C3        1.0  0.17998  0.01186  0.95351  1.0000
  C   C4        1.0  0.10330  0.02756  0.98149  1.0000
  N   N1        1.0  0.08150  0.99029  0.97344  1.0000
  C   C5        1.0  0.03672  0.99907  0.96543  1.0000
  C   C6        1.0  0.00635  0.96091  0.95544  1.0000
  N   N2        1.0  0.96924  0.95950  0.98639  1.0000
  N   N3        1.0  0.96880  0.93213  0.02180  1.0000
  N   N4        1.0  0.92935  0.93864  0.04060  1.0000
  C   C7        1.0  0.90700  0.96968  0.01494  1.0000
  C   C8        1.0  0.86179  0.98516  0.02589  1.0000
  N   N5        1.0  0.84190  0.96748  0.06222  1.0000
  C   C9        1.0  0.80059  0.98223  0.07153  1.0000
  C   C10       1.0  0.77860  0.01353  0.04632  1.0000
  C   C11       1.0  0.80160  0.02951  0.01006  1.0000
  N   N6        1.0  0.84294  0.01609  0.99904  1.0000
  N   N7        1.0  0.93157  0.98312  0.97961  1.0000
  C   C12       1.0  0.02576  0.04387  0.96641  1.0000
  S   S1        1.0  0.07170  0.07530  0.97886  1.0000
  H   H1        1.0  0.19781  0.00718  0.04375  1.0000
  H   H2        1.0  0.15433  0.96901  0.03191  1.0000
  H   H3        1.0  0.14306  0.01775  0.06312  1.0000
  H   H4        1.0  0.16210  0.06492  0.99749  1.0000
  H   H5        1.0  0.21566  0.01468  0.96067  1.0000
  H   H6        1.0  0.17257  0.97667  0.94703  1.0000
  H   H7        1.0  0.17321  0.03042  0.92278  1.0000
  H   H8        1.0  0.99261  0.96385  0.92174  1.0000
  H   H9        1.0  0.02399  0.92903  0.95774  1.0000
  H   H10       1.0  0.78521  0.96759  0.10087  1.0000
  H   H11       1.0  0.74538  0.02485  0.05449  1.0000
  H   H12       1.0  0.78705  0.05435  0.98808  1.0000
  H   H13       1.0  0.99359  0.05922  0.96087  1.0000
