data_image0
_chemical_formula_structural       C11NC4SCO2C2H37
_chemical_formula_sum              "C18 N1 S1 O2 H37"
_cell_length_a       30
_cell_length_b       30
_cell_length_c       30
_cell_angle_alpha    90
_cell_angle_beta     90
_cell_angle_gamma    90

_space_group_name_H-M_alt    "P 1"
_space_group_IT_number       1

loop_
  _space_group_symop_operation_xyz
  'x, y, z'

loop_
  _atom_site_type_symbol
  _atom_site_label
  _atom_site_symmetry_multiplicity
  _atom_site_fract_x
  _atom_site_fract_y
  _atom_site_fract_z
  _atom_site_occupancy
  C   C1        1.0  0.87494  0.91112  0.94545  1.0000
  C   C2        1.0  0.89646  0.95746  0.94875  1.0000
  C   C3        1.0  0.86048  0.99281  0.94315  1.0000
  C   C4        1.0  0.92337  0.96028  0.99276  1.0000
  C   C5        1.0  0.95107  0.00302  0.00449  1.0000
  C   C6        1.0  0.92166  0.04217  0.02297  1.0000
  C   C7        1.0  0.90559  0.04186  0.07213  1.0000
  C   C8        1.0  0.87535  0.00296  0.08463  1.0000
  C   C9        1.0  0.88097  0.08575  0.08192  1.0000
  C   C10       1.0  0.97599  0.01946  0.96199  1.0000
  C   C11       1.0  0.02292  0.03656  0.97215  1.0000
  N   N1        1.0  0.05146  0.99982  0.98744  1.0000
  C   C12       1.0  0.09592  0.01577  0.00122  1.0000
  C   C13       1.0  0.13516  0.98358  0.99052  1.0000
  C   C14       1.0  0.13712  0.97255  0.94048  1.0000
  C   C15       1.0  0.13236  0.93965  0.01699  1.0000
  S   S1        1.0  0.18753  0.01113  0.00750  1.0000
  C   C16       1.0  0.19357  0.05898  0.97299  1.0000
  O   O1        1.0  0.18211  0.02721  0.05282  1.0000
  O   O2        1.0  0.22450  0.98176  0.99681  1.0000
  C   C17       1.0  0.02954  0.97130  0.02090  1.0000
  C   C18       1.0  0.98664  0.99100  0.04041  1.0000
  H   H1        1.0  0.90022  0.88492  0.94748  1.0000
  H   H2        1.0  0.85087  0.90571  0.97229  1.0000
  H   H3        1.0  0.85754  0.90708  0.91361  1.0000
  H   H4        1.0  0.91930  0.96016  0.92044  1.0000
  H   H5        1.0  0.87511  0.02560  0.93694  1.0000
  H   H6        1.0  0.83929  0.98531  0.91441  1.0000
  H   H7        1.0  0.83897  0.99473  0.97247  1.0000
  H   H8        1.0  0.94691  0.93222  0.99171  1.0000
  H   H9        1.0  0.90088  0.95211  0.02014  1.0000
  H   H10       1.0  0.89263  0.04721  0.00167  1.0000
  H   H11       1.0  0.94136  0.07285  0.01914  1.0000
  H   H12       1.0  0.93455  0.04109  0.09433  1.0000
  H   H13       1.0  0.86046  0.00798  0.11755  1.0000
  H   H14       1.0  0.89406  0.97187  0.08662  1.0000
  H   H15       1.0  0.84819  0.99888  0.06075  1.0000
  H   H16       1.0  0.90215  0.11440  0.07426  1.0000
  H   H17       1.0  0.85026  0.08867  0.06205  1.0000
  H   H18       1.0  0.87181  0.08797  0.11730  1.0000
  H   H19       1.0  0.97975  0.99241  0.93779  1.0000
  H   H20       1.0  0.95681  0.04557  0.94515  1.0000
  H   H21       1.0  0.02154  0.06369  0.99659  1.0000
  H   H22       1.0  0.03698  0.05042  0.94140  1.0000
  H   H23       1.0  0.10263  0.04698  0.98334  1.0000
  H   H24       1.0  0.09565  0.02504  0.03664  1.0000
  H   H25       1.0  0.10808  0.95308  0.93008  1.0000
  H   H26       1.0  0.13783  0.00265  0.91997  1.0000
  H   H27       1.0  0.16693  0.95302  0.93240  1.0000
  H   H28       1.0  0.12959  0.94607  0.05288  1.0000
  H   H29       1.0  0.10385  0.91939  0.00666  1.0000
  H   H30       1.0  0.16221  0.91916  0.01200  1.0000
  H   H31       1.0  0.22496  0.07526  0.98209  1.0000
  H   H32       1.0  0.19490  0.04885  0.93813  1.0000
  H   H33       1.0  0.16615  0.08202  0.97900  1.0000
  H   H34       1.0  0.02206  0.93917  0.00499  1.0000
  H   H35       1.0  0.05176  0.96365  0.04893  1.0000
  H   H36       1.0  0.97270  0.96775  0.06484  1.0000
  H   H37       1.0  0.99634  0.02084  0.05923  1.0000
