data_image0
_chemical_formula_structural       C3NC3O2C8NCH22
_chemical_formula_sum              "C15 N2 O2 H22"
_cell_length_a       30
_cell_length_b       30
_cell_length_c       30
_cell_angle_alpha    90
_cell_angle_beta     90
_cell_angle_gamma    90

_space_group_name_H-M_alt    "P 1"
_space_group_IT_number       1

loop_
  _space_group_symop_operation_xyz
  'x, y, z'

loop_
  _atom_site_type_symbol
  _atom_site_label
  _atom_site_symmetry_multiplicity
  _atom_site_fract_x
  _atom_site_fract_y
  _atom_site_fract_z
  _atom_site_occupancy
  C   C1        1.0  0.18856  0.98379  0.98477  1.0000
  C   C2        1.0  0.16884  0.01297  0.02162  1.0000
  C   C3        1.0  0.16713  0.06191  0.00740  1.0000
  N   N1        1.0  0.12580  0.99643  0.03825  1.0000
  C   C4        1.0  0.09001  0.99431  0.00495  1.0000
  C   C5        1.0  0.04761  0.97608  0.02643  1.0000
  C   C6        1.0  0.01011  0.97390  0.99301  1.0000
  O   O1        1.0  0.01348  0.98208  0.95321  1.0000
  O   O2        1.0  0.97215  0.96059  0.01407  1.0000
  C   C7        1.0  0.93225  0.96333  0.98773  1.0000
  C   C8        1.0  0.89983  0.92806  0.00551  1.0000
  C   C9        1.0  0.85319  0.93016  0.98457  1.0000
  C   C10       1.0  0.84326  0.97266  0.95799  1.0000
  C   C11       1.0  0.86607  0.01281  0.97727  1.0000
  C   C12       1.0  0.84558  0.05444  0.97962  1.0000
  C   C13       1.0  0.86921  0.09040  0.99685  1.0000
  C   C14       1.0  0.91267  0.08345  0.01085  1.0000
  N   N2        1.0  0.93370  0.04372  0.00874  1.0000
  C   C15       1.0  0.91025  0.00892  0.99180  1.0000
  H   H1        1.0  0.22302  0.99372  0.97784  1.0000
  H   H2        1.0  0.16992  0.98659  0.95352  1.0000
  H   H3        1.0  0.18908  0.94867  0.99474  1.0000
  H   H4        1.0  0.19183  0.01093  0.05000  1.0000
  H   H5        1.0  0.20077  0.07428  0.00042  1.0000
  H   H6        1.0  0.15305  0.08277  0.03385  1.0000
  H   H7        1.0  0.14720  0.06673  0.97721  1.0000
  H   H8        1.0  0.11576  0.01620  0.06406  1.0000
  H   H9        1.0  0.09949  0.97239  0.97733  1.0000
  H   H10       1.0  0.08321  0.02743  0.99113  1.0000
  H   H11       1.0  0.03718  0.99784  0.05387  1.0000
  H   H12       1.0  0.05342  0.94241  0.03935  1.0000
  H   H13       1.0  0.93916  0.95630  0.95249  1.0000
  H   H14       1.0  0.91407  0.89467  0.00101  1.0000
  H   H15       1.0  0.89656  0.93197  0.04180  1.0000
  H   H16       1.0  0.84802  0.90120  0.96286  1.0000
  H   H17       1.0  0.82857  0.92687  0.01145  1.0000
  H   H18       1.0  0.80709  0.97764  0.95650  1.0000
  H   H19       1.0  0.85480  0.96855  0.92352  1.0000
  H   H20       1.0  0.81154  0.05907  0.96814  1.0000
  H   H21       1.0  0.85417  0.12317  0.99919  1.0000
  H   H22       1.0  0.93238  0.11059  0.02446  1.0000
