data_image0
_chemical_formula_structural       C3NCN2C5NOC5H26
_chemical_formula_sum              "C14 N4 O1 H26"
_cell_length_a       30
_cell_length_b       30
_cell_length_c       30
_cell_angle_alpha    90
_cell_angle_beta     90
_cell_angle_gamma    90

_space_group_name_H-M_alt    "P 1"
_space_group_IT_number       1

loop_
  _space_group_symop_operation_xyz
  'x, y, z'

loop_
  _atom_site_type_symbol
  _atom_site_label
  _atom_site_symmetry_multiplicity
  _atom_site_fract_x
  _atom_site_fract_y
  _atom_site_fract_z
  _atom_site_occupancy
  C   C1        1.0  0.10787  0.03666  0.92313  1.0000
  C   C2        1.0  0.09622  0.03103  0.97241  1.0000
  C   C3        1.0  0.13537  0.00901  0.99506  1.0000
  N   N1        1.0  0.14914  0.02180  0.03378  1.0000
  C   C4        1.0  0.05485  0.00165  0.98022  1.0000
  N   N2        1.0  0.03807  0.00882  0.02652  1.0000
  N   N3        1.0  0.99729  0.98497  0.03353  1.0000
  C   C5        1.0  0.00194  0.94117  0.05363  1.0000
  C   C6        1.0  0.96291  0.90973  0.04178  1.0000
  C   C7        1.0  0.95484  0.90126  0.99170  1.0000
  C   C8        1.0  0.92829  0.93737  0.96666  1.0000
  C   C9        1.0  0.95544  0.97893  0.95638  1.0000
  N   N4        1.0  0.99534  0.97309  0.94031  1.0000
  O   O1        1.0  0.02163  0.01151  0.94628  1.0000
  C   C10       1.0  0.93434  0.02426  0.96675  1.0000
  C   C11       1.0  0.94203  0.04558  0.01363  1.0000
  C   C12       1.0  0.97144  0.08764  0.00884  1.0000
  C   C13       1.0  0.89642  0.06228  0.03133  1.0000
  C   C14       1.0  0.96119  0.01318  0.04956  1.0000
  H   H1        1.0  0.08234  0.05604  0.90567  1.0000
  H   H2        1.0  0.11110  0.00433  0.90644  1.0000
  H   H3        1.0  0.13966  0.05423  0.91924  1.0000
  H   H4        1.0  0.09108  0.06429  0.98675  1.0000
  H   H5        1.0  0.15123  0.98041  0.97816  1.0000
  H   H6        1.0  0.17583  0.00273  0.04365  1.0000
  H   H7        1.0  0.06477  0.96652  0.97664  1.0000
  H   H8        1.0  0.06273  0.00167  0.04895  1.0000
  H   H9        1.0  0.00496  0.94396  0.08996  1.0000
  H   H10       1.0  0.03262  0.92505  0.04187  1.0000
  H   H11       1.0  0.93187  0.92080  0.05751  1.0000
  H   H12       1.0  0.97059  0.87740  0.05716  1.0000
  H   H13       1.0  0.98669  0.89444  0.97515  1.0000
  H   H14       1.0  0.93535  0.87038  0.98921  1.0000
  H   H15       1.0  0.91702  0.92397  0.93458  1.0000
  H   H16       1.0  0.89853  0.94643  0.98576  1.0000
  H   H17       1.0  0.89844  0.01989  0.96096  1.0000
  H   H18       1.0  0.94491  0.04746  0.94049  1.0000
  H   H19       1.0  0.95463  0.11306  0.98864  1.0000
  H   H20       1.0  0.00328  0.08098  0.99261  1.0000
  H   H21       1.0  0.97845  0.10259  0.04142  1.0000
  H   H22       1.0  0.87293  0.03460  0.03550  1.0000
  H   H23       1.0  0.90005  0.07874  0.06374  1.0000
  H   H24       1.0  0.88122  0.08625  0.00832  1.0000
  H   H25       1.0  0.93348  0.99217  0.06074  1.0000
  H   H26       1.0  0.97166  0.03170  0.07937  1.0000
