data_image0
_chemical_formula_structural       C3ONC5OC3NCOC5ClC3H23
_chemical_formula_sum              "C20 O3 N2 Cl1 H23"
_cell_length_a       30
_cell_length_b       30
_cell_length_c       30
_cell_angle_alpha    90
_cell_angle_beta     90
_cell_angle_gamma    90

_space_group_name_H-M_alt    "P 1"
_space_group_IT_number       1

loop_
  _space_group_symop_operation_xyz
  'x, y, z'

loop_
  _atom_site_type_symbol
  _atom_site_label
  _atom_site_symmetry_multiplicity
  _atom_site_fract_x
  _atom_site_fract_y
  _atom_site_fract_z
  _atom_site_occupancy
  C   C1        1.0  0.06827  0.03684  0.04904  1.0000
  C   C2        1.0  0.06339  0.98609  0.04785  1.0000
  C   C3        1.0  0.09493  0.96452  0.01408  1.0000
  O   O1        1.0  0.11882  0.93295  0.02458  1.0000
  N   N1        1.0  0.09332  0.98131  0.97155  1.0000
  C   C4        1.0  0.12453  0.96710  0.93769  1.0000
  C   C5        1.0  0.16079  0.00057  0.93539  1.0000
  C   C6        1.0  0.20203  0.00382  0.95547  1.0000
  C   C7        1.0  0.22111  0.04419  0.94024  1.0000
  C   C8        1.0  0.19025  0.06308  0.91208  1.0000
  O   O2        1.0  0.15342  0.03695  0.90903  1.0000
  C   C9        1.0  0.01499  0.96853  0.04283  1.0000
  C   C10       1.0  0.99172  0.98196  0.99904  1.0000
  C   C11       1.0  0.94120  0.97654  0.00218  1.0000
  N   N2        1.0  0.92234  0.00434  0.03759  1.0000
  C   C12       1.0  0.88157  0.02644  0.03464  1.0000
  O   O3        1.0  0.87094  0.05738  0.05930  1.0000
  C   C13       1.0  0.84898  0.01227  0.00039  1.0000
  C   C14       1.0  0.82940  0.04480  0.97324  1.0000
  C   C15       1.0  0.79819  0.03243  0.94106  1.0000
  C   C16       1.0  0.78622  0.98770  0.93642  1.0000
  C   C17       1.0  0.80513  0.95558  0.96426  1.0000
  Cl  Cl1       1.0  0.78998  0.90053  0.95854  1.0000
  C   C18       1.0  0.83630  0.96759  0.99651  1.0000
  C   C19       1.0  0.95174  0.01631  0.07446  1.0000
  C   C20       1.0  0.98603  0.98001  0.08389  1.0000
  H   H1        1.0  0.10351  0.04618  0.05143  1.0000
  H   H2        1.0  0.05491  0.05313  0.01930  1.0000
  H   H3        1.0  0.05123  0.05093  0.07805  1.0000
  H   H4        1.0  0.07571  0.97432  0.08035  1.0000
  H   H5        1.0  0.07797  0.01071  0.96586  1.0000
  H   H6        1.0  0.13772  0.93392  0.94512  1.0000
  H   H7        1.0  0.10642  0.96551  0.90607  1.0000
  H   H8        1.0  0.21620  0.97989  0.97847  1.0000
  H   H9        1.0  0.25331  0.05787  0.94888  1.0000
  H   H10       1.0  0.18947  0.09344  0.89266  1.0000
  H   H11       1.0  0.01757  0.93194  0.04231  1.0000
  H   H12       1.0  0.00418  0.96131  0.97159  1.0000
  H   H13       1.0  0.99900  0.01667  0.99041  1.0000
  H   H14       1.0  0.93276  0.94183  0.00978  1.0000
  H   H15       1.0  0.92620  0.98517  0.97008  1.0000
  H   H16       1.0  0.83846  0.07971  0.97733  1.0000
  H   H17       1.0  0.78319  0.05759  0.91975  1.0000
  H   H18       1.0  0.76188  0.97810  0.91132  1.0000
  H   H19       1.0  0.85029  0.94261  0.01865  1.0000
  H   H20       1.0  0.93170  0.02249  0.10439  1.0000
  H   H21       1.0  0.96814  0.04776  0.06570  1.0000
  H   H22       1.0  0.00659  0.98933  0.11258  1.0000
  H   H23       1.0  0.96800  0.94975  0.09386  1.0000
