data_image0
_chemical_formula_structural       C12ONC4SO2C3ONH28
_chemical_formula_sum              "C19 O4 N2 S1 H28"
_cell_length_a       30
_cell_length_b       30
_cell_length_c       30
_cell_angle_alpha    90
_cell_angle_beta     90
_cell_angle_gamma    90

_space_group_name_H-M_alt    "P 1"
_space_group_IT_number       1

loop_
  _space_group_symop_operation_xyz
  'x, y, z'

loop_
  _atom_site_type_symbol
  _atom_site_label
  _atom_site_symmetry_multiplicity
  _atom_site_fract_x
  _atom_site_fract_y
  _atom_site_fract_z
  _atom_site_occupancy
  C   C1        1.0  0.87390  0.93484  0.98257  1.0000
  C   C2        1.0  0.89388  0.94062  0.02907  1.0000
  C   C3        1.0  0.94153  0.92294  0.03043  1.0000
  C   C4        1.0  0.88859  0.98846  0.04735  1.0000
  C   C5        1.0  0.90512  0.02810  0.01846  1.0000
  C   C6        1.0  0.95626  0.03337  0.01976  1.0000
  C   C7        1.0  0.97739  0.02786  0.97339  1.0000
  C   C8        1.0  0.02492  0.00983  0.97521  1.0000
  C   C9        1.0  0.03783  0.97583  0.94563  1.0000
  C   C10       1.0  0.08095  0.95830  0.94683  1.0000
  C   C11       1.0  0.11170  0.97436  0.97784  1.0000
  C   C12       1.0  0.15753  0.95587  0.97783  1.0000
  O   O1        1.0  0.17683  0.95309  0.94179  1.0000
  N   N1        1.0  0.17679  0.94297  0.01813  1.0000
  C   C13       1.0  0.22354  0.93036  0.01802  1.0000
  C   C14       1.0  0.15194  0.93235  0.05844  1.0000
  C   C15       1.0  0.09986  0.00912  0.00651  1.0000
  C   C16       1.0  0.05667  0.02652  0.00536  1.0000
  S   S1        1.0  0.97869  0.07841  0.94051  1.0000
  O   O2        1.0  0.98349  0.06513  0.89417  1.0000
  O   O3        1.0  0.00989  0.10975  0.96015  1.0000
  C   C17       1.0  0.92459  0.10270  0.94457  1.0000
  C   C18       1.0  0.91743  0.12799  0.98761  1.0000
  C   C19       1.0  0.88049  0.11020  0.01649  1.0000
  O   O4        1.0  0.84873  0.13398  0.02700  1.0000
  N   N2        1.0  0.88227  0.06848  0.03398  1.0000
  H   H1        1.0  0.89351  0.95203  0.95708  1.0000
  H   H2        1.0  0.87278  0.89948  0.97348  1.0000
  H   H3        1.0  0.83975  0.94766  0.98138  1.0000
  H   H4        1.0  0.87448  0.91923  0.05161  1.0000
  H   H5        1.0  0.95676  0.92862  0.06309  1.0000
  H   H6        1.0  0.96245  0.93828  0.00496  1.0000
  H   H7        1.0  0.94184  0.88694  0.02427  1.0000
  H   H8        1.0  0.90362  0.99055  0.08067  1.0000
  H   H9        1.0  0.85262  0.99288  0.05297  1.0000
  H   H10       1.0  0.89317  0.02314  0.98442  1.0000
  H   H11       1.0  0.97003  0.00808  0.04227  1.0000
  H   H12       1.0  0.96616  0.06515  0.03475  1.0000
  H   H13       1.0  0.95729  0.00437  0.95386  1.0000
  H   H14       1.0  0.01461  0.96297  0.92087  1.0000
  H   H15       1.0  0.09070  0.93244  0.92335  1.0000
  H   H16       1.0  0.23916  0.94221  0.04877  1.0000
  H   H17       1.0  0.24123  0.94476  0.98959  1.0000
  H   H18       1.0  0.22585  0.89401  0.01628  1.0000
  H   H19       1.0  0.11594  0.93416  0.05364  1.0000
  H   H20       1.0  0.16008  0.89828  0.06863  1.0000
  H   H21       1.0  0.16206  0.95550  0.08472  1.0000
  H   H22       1.0  0.12431  0.02320  0.02925  1.0000
  H   H23       1.0  0.04853  0.05398  0.02765  1.0000
  H   H24       1.0  0.89963  0.07717  0.93746  1.0000
  H   H25       1.0  0.92328  0.12646  0.91677  1.0000
  H   H26       1.0  0.94722  0.13124  0.00835  1.0000
  H   H27       1.0  0.90785  0.16227  0.97898  1.0000
  H   H28       1.0  0.85432  0.06352  0.05251  1.0000
