data_image0
_chemical_formula_structural       C3NCSC2OC3ONH14
_chemical_formula_sum              "C9 N2 S1 O2 H14"
_cell_length_a       30
_cell_length_b       30
_cell_length_c       30
_cell_angle_alpha    90
_cell_angle_beta     90
_cell_angle_gamma    90

_space_group_name_H-M_alt    "P 1"
_space_group_IT_number       1

loop_
  _space_group_symop_operation_xyz
  'x, y, z'

loop_
  _atom_site_type_symbol
  _atom_site_label
  _atom_site_symmetry_multiplicity
  _atom_site_fract_x
  _atom_site_fract_y
  _atom_site_fract_z
  _atom_site_occupancy
  C   C1        1.0  0.90409  0.95735  0.00634  1.0000
  C   C2        1.0  0.92448  0.00153  0.99120  1.0000
  C   C3        1.0  0.88976  0.03878  0.99448  1.0000
  N   N1        1.0  0.96313  0.01077  0.01972  1.0000
  C   C4        1.0  0.99505  0.03938  0.99734  1.0000
  S   S1        1.0  0.03053  0.06357  0.04029  1.0000
  C   C5        1.0  0.06944  0.04300  0.99950  1.0000
  C   C6        1.0  0.10862  0.01450  0.01838  1.0000
  O   O1        1.0  0.14010  0.02907  0.04056  1.0000
  C   C7        1.0  0.10606  0.96497  0.00792  1.0000
  C   C8        1.0  0.08541  0.95776  0.96200  1.0000
  C   C9        1.0  0.03796  0.97517  0.96065  1.0000
  O   O2        1.0  0.00789  0.95433  0.94250  1.0000
  N   N2        1.0  0.03369  0.01626  0.97980  1.0000
  H   H1        1.0  0.89271  0.95892  0.04103  1.0000
  H   H2        1.0  0.92832  0.93015  0.00363  1.0000
  H   H3        1.0  0.87537  0.94864  0.98555  1.0000
  H   H4        1.0  0.93448  0.99779  0.95626  1.0000
  H   H5        1.0  0.87795  0.04313  0.02877  1.0000
  H   H6        1.0  0.86078  0.03111  0.97364  1.0000
  H   H7        1.0  0.90331  0.07071  0.98313  1.0000
  H   H8        1.0  0.95275  0.02382  0.04929  1.0000
  H   H9        1.0  0.98153  0.06414  0.97419  1.0000
  H   H10       1.0  0.08126  0.06841  0.97604  1.0000
  H   H11       1.0  0.08612  0.94898  0.03398  1.0000
  H   H12       1.0  0.13979  0.95105  0.00859  1.0000
  H   H13       1.0  0.10461  0.97467  0.93592  1.0000
  H   H14       1.0  0.08482  0.92204  0.95447  1.0000
