data_image0
_chemical_formula_structural       C6OC2ONC7H17
_chemical_formula_sum              "C15 O2 N1 H17"
_cell_length_a       30
_cell_length_b       30
_cell_length_c       30
_cell_angle_alpha    90
_cell_angle_beta     90
_cell_angle_gamma    90

_space_group_name_H-M_alt    "P 1"
_space_group_IT_number       1

loop_
  _space_group_symop_operation_xyz
  'x, y, z'

loop_
  _atom_site_type_symbol
  _atom_site_label
  _atom_site_symmetry_multiplicity
  _atom_site_fract_x
  _atom_site_fract_y
  _atom_site_fract_z
  _atom_site_occupancy
  C   C1        1.0  0.93791  0.90787  0.99180  1.0000
  C   C2        1.0  0.95144  0.95379  0.97391  1.0000
  C   C3        1.0  0.00168  0.96180  0.98190  1.0000
  C   C4        1.0  0.01842  0.00581  0.96182  1.0000
  C   C5        1.0  0.06881  0.01167  0.96694  1.0000
  C   C6        1.0  0.08370  0.02237  0.01435  1.0000
  O   O1        1.0  0.05695  0.02767  0.04491  1.0000
  C   C7        1.0  0.13119  0.02644  0.02237  1.0000
  C   C8        1.0  0.15078  0.03573  0.06275  1.0000
  O   O2        1.0  0.19570  0.03705  0.05816  1.0000
  N   N1        1.0  0.20676  0.02860  0.01411  1.0000
  C   C9        1.0  0.16791  0.02241  0.99329  1.0000
  C   C10       1.0  0.92129  0.98942  0.99359  1.0000
  C   C11       1.0  0.88749  0.00821  0.96726  1.0000
  C   C12       1.0  0.85915  0.04081  0.98460  1.0000
  C   C13       1.0  0.86412  0.05497  0.02852  1.0000
  C   C14       1.0  0.89736  0.03649  0.05514  1.0000
  C   C15       1.0  0.92569  0.00384  0.03786  1.0000
  H   H1        1.0  0.95759  0.88152  0.97595  1.0000
  H   H2        1.0  0.94295  0.90543  0.02789  1.0000
  H   H3        1.0  0.90267  0.90102  0.98502  1.0000
  H   H4        1.0  0.94642  0.95316  0.93764  1.0000
  H   H5        1.0  0.02037  0.93426  0.96666  1.0000
  H   H6        1.0  0.00923  0.96056  0.01761  1.0000
  H   H7        1.0  0.00119  0.03424  0.97695  1.0000
  H   H8        1.0  0.01036  0.00622  0.92615  1.0000
  H   H9        1.0  0.07939  0.03950  0.94573  1.0000
  H   H10       1.0  0.08601  0.98151  0.95559  1.0000
  H   H11       1.0  0.13817  0.04190  0.09593  1.0000
  H   H12       1.0  0.16842  0.01526  0.95798  1.0000
  H   H13       1.0  0.88294  0.99755  0.93291  1.0000
  H   H14       1.0  0.83316  0.05510  0.96381  1.0000
  H   H15       1.0  0.84211  0.08036  0.04203  1.0000
  H   H16       1.0  0.90135  0.04747  0.08943  1.0000
  H   H17       1.0  0.95134  0.98996  0.05940  1.0000
