data_image0
_chemical_formula_structural       C7O2C5NC2OH23
_chemical_formula_sum              "C14 O3 N1 H23"
_cell_length_a       30
_cell_length_b       30
_cell_length_c       30
_cell_angle_alpha    90
_cell_angle_beta     90
_cell_angle_gamma    90

_space_group_name_H-M_alt    "P 1"
_space_group_IT_number       1

loop_
  _space_group_symop_operation_xyz
  'x, y, z'

loop_
  _atom_site_type_symbol
  _atom_site_label
  _atom_site_symmetry_multiplicity
  _atom_site_fract_x
  _atom_site_fract_y
  _atom_site_fract_z
  _atom_site_occupancy
  C   C1        1.0  0.14580  0.99200  0.97330  1.0000
  C   C2        1.0  0.12167  0.03449  0.98462  1.0000
  C   C3        1.0  0.15177  0.07255  0.99754  1.0000
  C   C4        1.0  0.07706  0.03959  0.98423  1.0000
  C   C5        1.0  0.04273  0.00521  0.97119  1.0000
  C   C6        1.0  0.02499  0.97873  0.01119  1.0000
  C   C7        1.0  0.99711  0.00385  0.04466  1.0000
  O   O1        1.0  0.98999  0.99080  0.08268  1.0000
  O   O2        1.0  0.97813  0.04069  0.02643  1.0000
  C   C8        1.0  0.94101  0.06032  0.04944  1.0000
  C   C9        1.0  0.90159  0.06149  0.01710  1.0000
  C   C10       1.0  0.87451  0.01810  0.01366  1.0000
  C   C11       1.0  0.90016  0.97424  0.00890  1.0000
  C   C12       1.0  0.93157  0.97203  0.96873  1.0000
  N   N1        1.0  0.96336  0.93496  0.97211  1.0000
  C   C13       1.0  0.94578  0.89137  0.95961  1.0000
  C   C14       1.0  0.00327  0.93534  0.99610  1.0000
  O   O3        1.0  0.02339  0.90011  0.00367  1.0000
  H   H1        1.0  0.12346  0.96376  0.96778  1.0000
  H   H2        1.0  0.16818  0.98266  0.00059  1.0000
  H   H3        1.0  0.16578  0.99659  0.94310  1.0000
  H   H4        1.0  0.13310  0.10291  0.00542  1.0000
  H   H5        1.0  0.17146  0.06369  0.02696  1.0000
  H   H6        1.0  0.17462  0.08039  0.97019  1.0000
  H   H7        1.0  0.06322  0.07187  0.99365  1.0000
  H   H8        1.0  0.05669  0.98236  0.94630  1.0000
  H   H9        1.0  0.01611  0.02277  0.95344  1.0000
  H   H10       1.0  0.05449  0.96852  0.03055  1.0000
  H   H11       1.0  0.93216  0.04311  0.08038  1.0000
  H   H12       1.0  0.95084  0.09444  0.05787  1.0000
  H   H13       1.0  0.91342  0.07064  0.98373  1.0000
  H   H14       1.0  0.87859  0.08787  0.02771  1.0000
  H   H15       1.0  0.85366  0.01542  0.04361  1.0000
  H   H16       1.0  0.85131  0.02136  0.98558  1.0000
  H   H17       1.0  0.87579  0.94709  0.00600  1.0000
  H   H18       1.0  0.91797  0.96731  0.03994  1.0000
  H   H19       1.0  0.94988  0.00289  0.96413  1.0000
  H   H20       1.0  0.91211  0.96773  0.93808  1.0000
  H   H21       1.0  0.92734  0.89420  0.92828  1.0000
  H   H22       1.0  0.97241  0.86692  0.95492  1.0000
  H   H23       1.0  0.92352  0.87965  0.98601  1.0000
