data_image0
_chemical_formula_structural       C4NCOCNCONC2NC2OC4NC2NH32
_chemical_formula_sum              "C17 N6 O3 H32"
_cell_length_a       30
_cell_length_b       30
_cell_length_c       30
_cell_angle_alpha    90
_cell_angle_beta     90
_cell_angle_gamma    90

_space_group_name_H-M_alt    "P 1"
_space_group_IT_number       1

loop_
  _space_group_symop_operation_xyz
  'x, y, z'

loop_
  _atom_site_type_symbol
  _atom_site_label
  _atom_site_symmetry_multiplicity
  _atom_site_fract_x
  _atom_site_fract_y
  _atom_site_fract_z
  _atom_site_occupancy
  C   C1        1.0  0.81834  0.04747  0.00424  1.0000
  C   C2        1.0  0.82379  0.99687  0.00217  1.0000
  C   C3        1.0  0.78226  0.97429  0.02111  1.0000
  C   C4        1.0  0.86532  0.98089  0.02771  1.0000
  N   N1        1.0  0.90728  0.99304  0.00533  1.0000
  C   C5        1.0  0.93012  0.03078  0.02066  1.0000
  O   O1        1.0  0.91413  0.05426  0.05090  1.0000
  C   C6        1.0  0.97414  0.04680  0.99993  1.0000
  N   N2        1.0  0.00637  0.05785  0.03476  1.0000
  C   C7        1.0  0.02908  0.02938  0.06094  1.0000
  O   O2        1.0  0.03729  0.04039  0.09967  1.0000
  N   N3        1.0  0.04242  0.98886  0.04734  1.0000
  C   C8        1.0  0.05940  0.97494  0.00361  1.0000
  C   C9        1.0  0.11165  0.97411  0.00221  1.0000
  N   N4        1.0  0.13275  0.01791  0.99577  1.0000
  C   C10       1.0  0.17622  0.01388  0.97302  1.0000
  C   C11       1.0  0.20217  0.05781  0.97541  1.0000
  O   O3        1.0  0.21488  0.06937  0.01986  1.0000
  C   C12       1.0  0.18544  0.05153  0.05292  1.0000
  C   C13       1.0  0.13710  0.04478  0.03685  1.0000
  C   C14       1.0  0.04183  0.92757  0.99244  1.0000
  C   C15       1.0  0.99101  0.92251  0.99483  1.0000
  N   N5        1.0  0.96973  0.95745  0.96879  1.0000
  C   C16       1.0  0.96150  0.94503  0.92171  1.0000
  C   C17       1.0  0.91456  0.96660  0.92901  1.0000
  N   N6        1.0  0.92348  0.95915  0.97709  1.0000
  H   H1        1.0  0.78777  0.05787  0.98761  1.0000
  H   H2        1.0  0.81688  0.05933  0.03871  1.0000
  H   H3        1.0  0.84586  0.06430  0.98762  1.0000
  H   H4        1.0  0.82670  0.98717  0.96707  1.0000
  H   H5        1.0  0.75224  0.98565  0.00388  1.0000
  H   H6        1.0  0.77840  0.98150  0.05671  1.0000
  H   H7        1.0  0.78436  0.93805  0.01698  1.0000
  H   H8        1.0  0.86449  0.94437  0.03107  1.0000
  H   H9        1.0  0.86503  0.99407  0.06191  1.0000
  H   H10       1.0  0.96609  0.07873  0.98385  1.0000
  H   H11       1.0  0.98894  0.02717  0.97382  1.0000
  H   H12       1.0  0.99605  0.08370  0.05403  1.0000
  H   H13       1.0  0.05731  0.97346  0.07332  1.0000
  H   H14       1.0  0.04883  0.99845  0.97790  1.0000
  H   H15       1.0  0.12524  0.95750  0.03184  1.0000
  H   H16       1.0  0.12081  0.95310  0.97360  1.0000
  H   H17       1.0  0.17067  0.00518  0.93804  1.0000
  H   H18       1.0  0.19630  0.98732  0.98834  1.0000
  H   H19       1.0  0.18246  0.08536  0.96171  1.0000
  H   H20       1.0  0.23276  0.05543  0.95558  1.0000
  H   H21       1.0  0.19936  0.01963  0.06447  1.0000
  H   H22       1.0  0.18593  0.07446  0.08141  1.0000
  H   H23       1.0  0.11813  0.03051  0.06483  1.0000
  H   H24       1.0  0.12276  0.07781  0.02944  1.0000
  H   H25       1.0  0.05309  0.91833  0.95890  1.0000
  H   H26       1.0  0.05664  0.90334  0.01557  1.0000
  H   H27       1.0  0.98106  0.92535  0.02991  1.0000
  H   H28       1.0  0.98130  0.88891  0.98425  1.0000
  H   H29       1.0  0.96065  0.90928  0.91455  1.0000
  H   H30       1.0  0.98272  0.96190  0.89733  1.0000
  H   H31       1.0  0.91230  0.00154  0.91857  1.0000
  H   H32       1.0  0.88659  0.94771  0.91530  1.0000
