data_image0
_chemical_formula_structural       C3NCOC4BrSCNC4H19
_chemical_formula_sum              "C13 N2 O1 Br1 S1 H19"
_cell_length_a       30
_cell_length_b       30
_cell_length_c       30
_cell_angle_alpha    90
_cell_angle_beta     90
_cell_angle_gamma    90

_space_group_name_H-M_alt    "P 1"
_space_group_IT_number       1

loop_
  _space_group_symop_operation_xyz
  'x, y, z'

loop_
  _atom_site_type_symbol
  _atom_site_label
  _atom_site_symmetry_multiplicity
  _atom_site_fract_x
  _atom_site_fract_y
  _atom_site_fract_z
  _atom_site_occupancy
  C   C1        1.0  0.98611  0.00298  0.03965  1.0000
  C   C2        1.0  0.98664  0.98006  0.99406  1.0000
  C   C3        1.0  0.02134  0.94206  0.99355  1.0000
  N   N1        1.0  0.06674  0.95775  0.99923  1.0000
  C   C4        1.0  0.09063  0.97603  0.96421  1.0000
  O   O1        1.0  0.07462  0.97789  0.92654  1.0000
  C   C5        1.0  0.13474  0.99277  0.97596  1.0000
  C   C6        1.0  0.16011  0.98650  0.01411  1.0000
  C   C7        1.0  0.20200  0.00912  0.01224  1.0000
  C   C8        1.0  0.20688  0.03148  0.97272  1.0000
  Br  Br1       1.0  0.25857  0.06562  0.95786  1.0000
  S   S1        1.0  0.16271  0.02575  0.93821  1.0000
  C   C9        1.0  0.94080  0.96041  0.98065  1.0000
  N   N2        1.0  0.90260  0.98991  0.97543  1.0000
  C   C10       1.0  0.90978  0.03166  0.95186  1.0000
  C   C11       1.0  0.86456  0.05377  0.95684  1.0000
  C   C12       1.0  0.85027  0.04138  0.00392  1.0000
  C   C13       1.0  0.87596  0.99886  0.01500  1.0000
  H   H1        1.0  0.01944  0.01442  0.04917  1.0000
  H   H2        1.0  0.97420  0.98032  0.06568  1.0000
  H   H3        1.0  0.96476  0.03253  0.03942  1.0000
  H   H4        1.0  0.99662  0.00485  0.96909  1.0000
  H   H5        1.0  0.01964  0.92381  0.96194  1.0000
  H   H6        1.0  0.01481  0.91825  0.02048  1.0000
  H   H7        1.0  0.07845  0.96099  0.03057  1.0000
  H   H8        1.0  0.14986  0.96633  0.04222  1.0000
  H   H9        1.0  0.22682  0.00857  0.03845  1.0000
  H   H10       1.0  0.93196  0.93338  0.00371  1.0000
  H   H11       1.0  0.94520  0.94389  0.94826  1.0000
  H   H12       1.0  0.93538  0.05245  0.96753  1.0000
  H   H13       1.0  0.91838  0.02654  0.91679  1.0000
  H   H14       1.0  0.84088  0.03996  0.93264  1.0000
  H   H15       1.0  0.86601  0.08988  0.95192  1.0000
  H   H16       1.0  0.85957  0.06797  0.02719  1.0000
  H   H17       1.0  0.81415  0.03664  0.00599  1.0000
  H   H18       1.0  0.89579  0.00405  0.04514  1.0000
  H   H19       1.0  0.85304  0.97119  0.02143  1.0000
