data_image0
_chemical_formula_structural       C3ONC5NCNC2NCOC4OC2H26
_chemical_formula_sum              "C18 O3 N4 H26"
_cell_length_a       30
_cell_length_b       30
_cell_length_c       30
_cell_angle_alpha    90
_cell_angle_beta     90
_cell_angle_gamma    90

_space_group_name_H-M_alt    "P 1"
_space_group_IT_number       1

loop_
  _space_group_symop_operation_xyz
  'x, y, z'

loop_
  _atom_site_type_symbol
  _atom_site_label
  _atom_site_symmetry_multiplicity
  _atom_site_fract_x
  _atom_site_fract_y
  _atom_site_fract_z
  _atom_site_occupancy
  C   C1        1.0  0.05076  0.04092  0.07004  1.0000
  C   C2        1.0  0.03214  0.05112  0.02361  1.0000
  C   C3        1.0  0.06363  0.03086  0.98784  1.0000
  O   O1        1.0  0.05733  0.99516  0.96869  1.0000
  N   N1        1.0  0.10113  0.05664  0.98003  1.0000
  C   C4        1.0  0.13650  0.04199  0.95078  1.0000
  C   C5        1.0  0.17336  0.02030  0.97680  1.0000
  C   C6        1.0  0.17314  0.97441  0.98495  1.0000
  C   C7        1.0  0.20723  0.95532  0.00993  1.0000
  C   C8        1.0  0.24047  0.98308  0.02643  1.0000
  N   N2        1.0  0.24164  0.02757  0.01968  1.0000
  C   C9        1.0  0.20816  0.04512  0.99504  1.0000
  N   N3        1.0  0.98552  0.03717  0.01632  1.0000
  C   C10       1.0  0.97442  0.99153  0.03013  1.0000
  C   C11       1.0  0.92719  0.97838  0.01428  1.0000
  N   N4        1.0  0.89310  0.01174  0.02502  1.0000
  C   C12       1.0  0.84756  0.00415  0.02169  1.0000
  O   O2        1.0  0.82037  0.02925  0.04003  1.0000
  C   C13       1.0  0.82987  0.96610  0.99141  1.0000
  C   C14       1.0  0.82452  0.98231  0.94340  1.0000
  C   C15       1.0  0.85259  0.95062  0.91619  1.0000
  C   C16       1.0  0.85311  0.90918  0.94479  1.0000
  O   O3        1.0  0.85331  0.92471  0.98986  1.0000
  C   C17       1.0  0.90858  0.05013  0.05076  1.0000
  C   C18       1.0  0.95270  0.06988  0.03280  1.0000
  H   H1        1.0  0.05505  0.00497  0.07517  1.0000
  H   H2        1.0  0.02900  0.05390  0.09646  1.0000
  H   H3        1.0  0.08356  0.05633  0.07424  1.0000
  H   H4        1.0  0.03369  0.08740  0.01848  1.0000
  H   H5        1.0  0.10707  0.08339  0.99973  1.0000
  H   H6        1.0  0.14884  0.07138  0.93299  1.0000
  H   H7        1.0  0.12347  0.01899  0.92562  1.0000
  H   H8        1.0  0.14645  0.95356  0.97181  1.0000
  H   H9        1.0  0.20809  0.91967  0.01608  1.0000
  H   H10       1.0  0.26804  0.96980  0.04599  1.0000
  H   H11       1.0  0.21036  0.08103  0.99032  1.0000
  H   H12       1.0  0.97583  0.98862  0.06659  1.0000
  H   H13       1.0  0.99785  0.96707  0.01665  1.0000
  H   H14       1.0  0.91806  0.94686  0.03037  1.0000
  H   H15       1.0  0.92709  0.97370  0.97803  1.0000
  H   H16       1.0  0.79683  0.95804  0.00481  1.0000
  H   H17       1.0  0.78948  0.97927  0.93361  1.0000
  H   H18       1.0  0.83410  0.01714  0.93829  1.0000
  H   H19       1.0  0.88643  0.96402  0.91256  1.0000
  H   H20       1.0  0.83924  0.94464  0.88272  1.0000
  H   H21       1.0  0.88237  0.88822  0.93891  1.0000
  H   H22       1.0  0.82290  0.88909  0.93960  1.0000
  H   H23       1.0  0.91314  0.03863  0.08522  1.0000
  H   H24       1.0  0.88320  0.07636  0.05148  1.0000
  H   H25       1.0  0.94485  0.09196  0.00470  1.0000
  H   H26       1.0  0.96665  0.09114  0.05910  1.0000
