data_image0
_chemical_formula_structural       C7NC3OC7H33
_chemical_formula_sum              "C17 N1 O1 H33"
_cell_length_a       30
_cell_length_b       30
_cell_length_c       30
_cell_angle_alpha    90
_cell_angle_beta     90
_cell_angle_gamma    90

_space_group_name_H-M_alt    "P 1"
_space_group_IT_number       1

loop_
  _space_group_symop_operation_xyz
  'x, y, z'

loop_
  _atom_site_type_symbol
  _atom_site_label
  _atom_site_symmetry_multiplicity
  _atom_site_fract_x
  _atom_site_fract_y
  _atom_site_fract_z
  _atom_site_occupancy
  C   C1        1.0  0.01943  0.04153  0.90743  1.0000
  C   C2        1.0  0.03214  0.05065  0.95626  1.0000
  C   C3        1.0  0.07857  0.02924  0.96447  1.0000
  C   C4        1.0  0.09980  0.04042  0.00953  1.0000
  C   C5        1.0  0.14669  0.02048  0.01473  1.0000
  C   C6        1.0  0.14830  0.97770  0.04281  1.0000
  C   C7        1.0  0.12155  0.93822  0.02477  1.0000
  N   N1        1.0  0.13804  0.92351  0.98149  1.0000
  C   C8        1.0  0.99668  0.03419  0.99080  1.0000
  C   C9        1.0  0.99068  0.06829  0.02906  1.0000
  C   C10       1.0  0.94506  0.06481  0.05160  1.0000
  O   O1        1.0  0.92985  0.02004  0.05192  1.0000
  C   C11       1.0  0.91980  0.00237  0.00837  1.0000
  C   C12       1.0  0.87027  0.01198  0.99737  1.0000
  C   C13       1.0  0.83914  0.97784  0.01872  1.0000
  C   C14       1.0  0.84787  0.93079  0.00103  1.0000
  C   C15       1.0  0.89585  0.92383  0.98503  1.0000
  C   C16       1.0  0.92854  0.95148  0.01229  1.0000
  C   C17       1.0  0.95013  0.02334  0.97206  1.0000
  H   H1        1.0  0.01551  0.00571  0.90120  1.0000
  H   H2        1.0  0.04534  0.05375  0.88471  1.0000
  H   H3        1.0  0.98849  0.05867  0.89832  1.0000
  H   H4        1.0  0.03600  0.08693  0.95924  1.0000
  H   H5        1.0  0.07563  0.99303  0.96053  1.0000
  H   H6        1.0  0.10142  0.04051  0.93818  1.0000
  H   H7        1.0  0.07876  0.02928  0.03710  1.0000
  H   H8        1.0  0.10240  0.07681  0.01217  1.0000
  H   H9        1.0  0.16241  0.01496  0.98216  1.0000
  H   H10       1.0  0.16744  0.04523  0.03191  1.0000
  H   H11       1.0  0.13631  0.98534  0.07656  1.0000
  H   H12       1.0  0.18336  0.96762  0.04656  1.0000
  H   H13       1.0  0.12410  0.91049  0.04837  1.0000
  H   H14       1.0  0.08615  0.94660  0.02227  1.0000
  H   H15       1.0  0.12085  0.89607  0.97167  1.0000
  H   H16       1.0  0.17054  0.91418  0.98426  1.0000
  H   H17       1.0  0.00939  0.00326  0.00573  1.0000
  H   H18       1.0  0.99498  0.10275  0.01739  1.0000
  H   H19       1.0  0.01660  0.06270  0.05423  1.0000
  H   H20       1.0  0.94735  0.07628  0.08625  1.0000
  H   H21       1.0  0.92046  0.08629  0.03502  1.0000
  H   H22       1.0  0.86496  0.01141  0.96120  1.0000
  H   H23       1.0  0.86076  0.04527  0.00912  1.0000
  H   H24       1.0  0.80423  0.98684  0.01258  1.0000
  H   H25       1.0  0.84373  0.97832  0.05497  1.0000
  H   H26       1.0  0.82513  0.92352  0.97338  1.0000
  H   H27       1.0  0.84009  0.90670  0.02743  1.0000
  H   H28       1.0  0.89862  0.93303  0.94980  1.0000
  H   H29       1.0  0.90445  0.88835  0.98709  1.0000
  H   H30       1.0  0.92652  0.94105  0.04727  1.0000
  H   H31       1.0  0.96268  0.94338  0.00175  1.0000
  H   H32       1.0  0.95181  0.00060  0.94357  1.0000
  H   H33       1.0  0.93512  0.05434  0.95976  1.0000
