data_image0
_chemical_formula_structural       C3ClCSO2NC5SH14
_chemical_formula_sum              "C9 Cl1 S2 O2 N1 H14"
_cell_length_a       30
_cell_length_b       30
_cell_length_c       30
_cell_angle_alpha    90
_cell_angle_beta     90
_cell_angle_gamma    90

_space_group_name_H-M_alt    "P 1"
_space_group_IT_number       1

loop_
  _space_group_symop_operation_xyz
  'x, y, z'

loop_
  _atom_site_type_symbol
  _atom_site_label
  _atom_site_symmetry_multiplicity
  _atom_site_fract_x
  _atom_site_fract_y
  _atom_site_fract_z
  _atom_site_occupancy
  C   C1        1.0  0.95393  0.96236  0.90604  1.0000
  C   C2        1.0  0.94976  0.97418  0.95571  1.0000
  C   C3        1.0  0.90177  0.98739  0.96784  1.0000
  Cl  Cl1       1.0  0.88370  0.03542  0.93776  1.0000
  C   C4        1.0  0.96611  0.93399  0.98298  1.0000
  S   S1        1.0  0.97490  0.94380  0.04128  1.0000
  O   O1        1.0  0.93226  0.95356  0.06142  1.0000
  O   O2        1.0  0.00297  0.90841  0.05807  1.0000
  N   N1        1.0  0.00428  0.99072  0.04289  1.0000
  C   C5        1.0  0.05014  0.99008  0.02658  1.0000
  C   C6        1.0  0.06825  0.03638  0.03084  1.0000
  C   C7        1.0  0.08655  0.05654  0.06799  1.0000
  C   C8        1.0  0.10002  0.10127  0.05948  1.0000
  C   C9        1.0  0.09150  0.11384  0.01618  1.0000
  S   S2        1.0  0.06732  0.07192  0.98608  1.0000
  H   H1        1.0  0.93147  0.93501  0.89706  1.0000
  H   H2        1.0  0.98804  0.95202  0.89805  1.0000
  H   H3        1.0  0.94626  0.99087  0.88463  1.0000
  H   H4        1.0  0.97164  0.00275  0.96193  1.0000
  H   H5        1.0  0.87832  0.96038  0.96064  1.0000
  H   H6        1.0  0.89862  0.99635  0.00290  1.0000
  H   H7        1.0  0.94246  0.90623  0.98073  1.0000
  H   H8        1.0  0.99815  0.92204  0.97011  1.0000
  H   H9        1.0  0.98667  0.01951  0.03889  1.0000
  H   H10       1.0  0.05128  0.97908  0.99182  1.0000
  H   H11       1.0  0.07034  0.96712  0.04652  1.0000
  H   H12       1.0  0.08993  0.03993  0.09991  1.0000
  H   H13       1.0  0.11512  0.12314  0.08393  1.0000
  H   H14       1.0  0.09824  0.14571  0.00073  1.0000
