data_image0
_chemical_formula_structural       C3SCO2NC16H33
_chemical_formula_sum              "C20 S1 O2 N1 H33"
_cell_length_a       30
_cell_length_b       30
_cell_length_c       30
_cell_angle_alpha    90
_cell_angle_beta     90
_cell_angle_gamma    90

_space_group_name_H-M_alt    "P 1"
_space_group_IT_number       1

loop_
  _space_group_symop_operation_xyz
  'x, y, z'

loop_
  _atom_site_type_symbol
  _atom_site_label
  _atom_site_symmetry_multiplicity
  _atom_site_fract_x
  _atom_site_fract_y
  _atom_site_fract_z
  _atom_site_occupancy
  C   C1        1.0  0.13280  0.03984  0.02240  1.0000
  C   C2        1.0  0.11498  0.03346  0.97501  1.0000
  C   C3        1.0  0.13626  0.99474  0.94942  1.0000
  S   S1        1.0  0.19424  0.00160  0.93756  1.0000
  C   C4        1.0  0.22176  0.97515  0.98291  1.0000
  O   O1        1.0  0.20539  0.04859  0.93860  1.0000
  O   O2        1.0  0.20395  0.97511  0.89825  1.0000
  N   N1        1.0  0.06573  0.03041  0.97531  1.0000
  C   C5        1.0  0.04836  0.99128  0.99913  1.0000
  C   C6        1.0  0.01485  0.96651  0.96902  1.0000
  C   C7        1.0  0.97473  0.98981  0.99270  1.0000
  C   C8        1.0  0.95556  0.02665  0.96265  1.0000
  C   C9        1.0  0.93834  0.95515  0.00498  1.0000
  C   C10       1.0  0.90120  0.97379  0.03562  1.0000
  C   C11       1.0  0.88317  0.93678  0.06606  1.0000
  C   C12       1.0  0.86241  0.99521  0.01089  1.0000
  C   C13       1.0  0.83874  0.97248  0.97756  1.0000
  C   C14       1.0  0.80297  0.99276  0.95573  1.0000
  C   C15       1.0  0.79017  0.03591  0.96710  1.0000
  C   C16       1.0  0.81301  0.05876  0.00042  1.0000
  C   C17       1.0  0.84876  0.03851  0.02228  1.0000
  C   C18       1.0  0.00909  0.00494  0.03081  1.0000
  C   C19       1.0  0.01143  0.97524  0.07275  1.0000
  C   C20       1.0  0.00516  0.05363  0.04596  1.0000
  H   H1        1.0  0.13185  0.00897  0.04180  1.0000
  H   H2        1.0  0.11345  0.06510  0.04034  1.0000
  H   H3        1.0  0.16725  0.05179  0.02189  1.0000
  H   H4        1.0  0.12239  0.06443  0.95701  1.0000
  H   H5        1.0  0.13246  0.96267  0.96637  1.0000
  H   H6        1.0  0.12018  0.99157  0.91672  1.0000
  H   H7        1.0  0.21437  0.99270  0.01381  1.0000
  H   H8        1.0  0.21070  0.94053  0.98477  1.0000
  H   H9        1.0  0.25758  0.97628  0.97647  1.0000
  H   H10       1.0  0.05414  0.03440  0.94357  1.0000
  H   H11       1.0  0.07334  0.96914  0.01388  1.0000
  H   H12       1.0  0.01773  0.97169  0.93297  1.0000
  H   H13       1.0  0.01619  0.93028  0.97425  1.0000
  H   H14       1.0  0.93601  0.01236  0.93531  1.0000
  H   H15       1.0  0.93407  0.04923  0.98149  1.0000
  H   H16       1.0  0.98151  0.04721  0.94741  1.0000
  H   H17       1.0  0.95433  0.92689  0.02180  1.0000
  H   H18       1.0  0.92439  0.94104  0.97427  1.0000
  H   H19       1.0  0.91594  0.99904  0.05754  1.0000
  H   H20       1.0  0.85702  0.94950  0.08817  1.0000
  H   H21       1.0  0.86903  0.90913  0.04682  1.0000
  H   H22       1.0  0.90978  0.92327  0.08709  1.0000
  H   H23       1.0  0.84776  0.93861  0.96835  1.0000
  H   H24       1.0  0.78502  0.97478  0.92990  1.0000
  H   H25       1.0  0.76233  0.05166  0.95010  1.0000
  H   H26       1.0  0.80299  0.09238  0.00947  1.0000
  H   H27       1.0  0.86609  0.05695  0.04825  1.0000
  H   H28       1.0  0.98172  0.97923  0.09353  1.0000
  H   H29       1.0  0.04038  0.98421  0.09317  1.0000
  H   H30       1.0  0.01474  0.93986  0.06441  1.0000
  H   H31       1.0  0.03285  0.06270  0.06796  1.0000
  H   H32       1.0  0.00526  0.07721  0.01815  1.0000
  H   H33       1.0  0.97412  0.05887  0.06447  1.0000
