data_image0
_chemical_formula_structural       C5OC2NC2OC6H25
_chemical_formula_sum              "C15 O2 N1 H25"
_cell_length_a       30
_cell_length_b       30
_cell_length_c       30
_cell_angle_alpha    90
_cell_angle_beta     90
_cell_angle_gamma    90

_space_group_name_H-M_alt    "P 1"
_space_group_IT_number       1

loop_
  _space_group_symop_operation_xyz
  'x, y, z'

loop_
  _atom_site_type_symbol
  _atom_site_label
  _atom_site_symmetry_multiplicity
  _atom_site_fract_x
  _atom_site_fract_y
  _atom_site_fract_z
  _atom_site_occupancy
  C   C1        1.0  0.88847  0.02539  0.89539  1.0000
  C   C2        1.0  0.90273  0.01551  0.94360  1.0000
  C   C3        1.0  0.87477  0.97655  0.96184  1.0000
  C   C4        1.0  0.89432  0.05696  0.97256  1.0000
  C   C5        1.0  0.95274  0.00337  0.94412  1.0000
  O   O1        1.0  0.96679  0.99357  0.98849  1.0000
  C   C6        1.0  0.01387  0.98517  0.99174  1.0000
  C   C7        1.0  0.03767  0.02908  0.00544  1.0000
  N   N1        1.0  0.08393  0.03173  0.98885  1.0000
  C   C8        1.0  0.10814  0.06929  0.00849  1.0000
  C   C9        1.0  0.12759  0.05880  0.05457  1.0000
  O   O2        1.0  0.15044  0.09685  0.07160  1.0000
  C   C10       1.0  0.02249  0.94796  0.02516  1.0000
  C   C11       1.0  0.06423  0.92676  0.02604  1.0000
  C   C12       1.0  0.07321  0.89296  0.05677  1.0000
  C   C13       1.0  0.04064  0.87990  0.08713  1.0000
  C   C14       1.0  0.99906  0.90053  0.08670  1.0000
  C   C15       1.0  0.99004  0.93434  0.05600  1.0000
  H   H1        1.0  0.85308  0.03426  0.89365  1.0000
  H   H2        1.0  0.90762  0.05321  0.88142  1.0000
  H   H3        1.0  0.89371  0.99634  0.87385  1.0000
  H   H4        1.0  0.88085  0.94601  0.94276  1.0000
  H   H5        1.0  0.83907  0.98391  0.95983  1.0000
  H   H6        1.0  0.88259  0.96956  0.99681  1.0000
  H   H7        1.0  0.85922  0.06702  0.97118  1.0000
  H   H8        1.0  0.91443  0.08524  0.96117  1.0000
  H   H9        1.0  0.90260  0.05082  0.00759  1.0000
  H   H10       1.0  0.97251  0.03112  0.93091  1.0000
  H   H11       1.0  0.95875  0.97405  0.92313  1.0000
  H   H12       1.0  0.02596  0.97367  0.95913  1.0000
  H   H13       1.0  0.01917  0.05768  0.99205  1.0000
  H   H14       1.0  0.03660  0.03240  0.04184  1.0000
  H   H15       1.0  0.08299  0.03570  0.95507  1.0000
  H   H16       1.0  0.08749  0.09947  0.00967  1.0000
  H   H17       1.0  0.13608  0.07772  0.98640  1.0000
  H   H18       1.0  0.15170  0.03155  0.05212  1.0000
  H   H19       1.0  0.10191  0.04915  0.07857  1.0000
  H   H20       1.0  0.12786  0.11829  0.08058  1.0000
  H   H21       1.0  0.09029  0.93684  0.00287  1.0000
  H   H22       1.0  0.10572  0.87699  0.05707  1.0000
  H   H23       1.0  0.04766  0.85369  0.11111  1.0000
  H   H24       1.0  0.97359  0.89045  0.11037  1.0000
  H   H25       1.0  0.95738  0.95011  0.05637  1.0000
