data_image0
_chemical_formula_structural       C3SC2NCOC4O2C3OCONC7OH24
_chemical_formula_sum              "C21 S1 N2 O6 H24"
_cell_length_a       30
_cell_length_b       30
_cell_length_c       30
_cell_angle_alpha    90
_cell_angle_beta     90
_cell_angle_gamma    90

_space_group_name_H-M_alt    "P 1"
_space_group_IT_number       1

loop_
  _space_group_symop_operation_xyz
  'x, y, z'

loop_
  _atom_site_type_symbol
  _atom_site_label
  _atom_site_symmetry_multiplicity
  _atom_site_fract_x
  _atom_site_fract_y
  _atom_site_fract_z
  _atom_site_occupancy
  C   C1        1.0  0.96978  0.11248  0.94588  1.0000
  C   C2        1.0  0.96637  0.07746  0.98265  1.0000
  C   C3        1.0  0.93645  0.09409  0.02021  1.0000
  S   S1        1.0  0.94472  0.02600  0.95783  1.0000
  C   C4        1.0  0.95454  0.98742  0.00083  1.0000
  C   C5        1.0  0.99659  0.97338  0.00847  1.0000
  N   N1        1.0  0.03408  0.98497  0.98387  1.0000
  C   C6        1.0  0.07650  0.96906  0.99138  1.0000
  O   O1        1.0  0.10752  0.98435  0.96158  1.0000
  C   C7        1.0  0.15278  0.97014  0.96506  1.0000
  C   C8        1.0  0.17835  0.99927  0.99798  1.0000
  C   C9        1.0  0.22712  0.98567  0.00070  1.0000
  C   C10       1.0  0.25142  0.01377  0.03415  1.0000
  O   O2        1.0  0.26086  0.00297  0.07216  1.0000
  O   O3        1.0  0.26212  0.05433  0.01831  1.0000
  C   C11       1.0  0.08363  0.94093  0.02583  1.0000
  C   C12       1.0  0.04630  0.92795  0.05399  1.0000
  C   C13       1.0  0.00500  0.94327  0.04554  1.0000
  O   O4        1.0  0.96919  0.93103  0.07280  1.0000
  C   C14       1.0  0.92614  0.94409  0.06386  1.0000
  O   O5        1.0  0.89629  0.93042  0.08849  1.0000
  N   N2        1.0  0.91895  0.97185  0.02660  1.0000
  C   C15       1.0  0.87331  0.98338  0.01794  1.0000
  C   C16       1.0  0.85166  0.01165  0.04845  1.0000
  C   C17       1.0  0.80764  0.02485  0.04161  1.0000
  C   C18       1.0  0.78453  0.00952  0.00450  1.0000
  C   C19       1.0  0.80527  0.98058  0.97459  1.0000
  C   C20       1.0  0.84979  0.96689  0.98065  1.0000
  C   C21       1.0  0.86849  0.93195  0.94970  1.0000
  O   O6        1.0  0.85589  0.94086  0.90479  1.0000
  H   H1        1.0  0.98362  0.14355  0.95919  1.0000
  H   H2        1.0  0.99190  0.10148  0.91897  1.0000
  H   H3        1.0  0.93715  0.12032  0.93145  1.0000
  H   H4        1.0  0.99989  0.07148  0.99578  1.0000
  H   H5        1.0  0.94869  0.12605  0.03300  1.0000
  H   H6        1.0  0.90207  0.09924  0.00902  1.0000
  H   H7        1.0  0.93620  0.07089  0.04836  1.0000
  H   H8        1.0  0.02966  0.00355  0.95600  1.0000
  H   H9        1.0  0.16738  0.97435  0.93183  1.0000
  H   H10       1.0  0.15531  0.93450  0.97270  1.0000
  H   H11       1.0  0.16304  0.99755  0.03112  1.0000
  H   H12       1.0  0.17540  0.03432  0.98792  1.0000
  H   H13       1.0  0.23030  0.95076  0.01095  1.0000
  H   H14       1.0  0.24380  0.98871  0.96834  1.0000
  H   H15       1.0  0.27737  0.06888  0.04330  1.0000
  H   H16       1.0  0.11586  0.92708  0.03412  1.0000
  H   H17       1.0  0.05267  0.90572  0.08177  1.0000
  H   H18       1.0  0.86923  0.02382  0.07772  1.0000
  H   H19       1.0  0.79142  0.04692  0.06531  1.0000
  H   H20       1.0  0.75017  0.01959  0.99900  1.0000
  H   H21       1.0  0.78638  0.96818  0.94619  1.0000
  H   H22       1.0  0.85516  0.89928  0.95916  1.0000
  H   H23       1.0  0.90480  0.93006  0.95073  1.0000
  H   H24       1.0  0.87128  0.91915  0.88637  1.0000
