data_image0
_chemical_formula_structural       C3NSO2C4NCSNCOC4OC2H17
_chemical_formula_sum              "C15 N3 S2 O4 H17"
_cell_length_a       30
_cell_length_b       30
_cell_length_c       30
_cell_angle_alpha    90
_cell_angle_beta     90
_cell_angle_gamma    90

_space_group_name_H-M_alt    "P 1"
_space_group_IT_number       1

loop_
  _space_group_symop_operation_xyz
  'x, y, z'

loop_
  _atom_site_type_symbol
  _atom_site_label
  _atom_site_symmetry_multiplicity
  _atom_site_fract_x
  _atom_site_fract_y
  _atom_site_fract_z
  _atom_site_occupancy
  C   C1        1.0  0.78456  0.01423  0.99528  1.0000
  C   C2        1.0  0.83480  0.02006  0.99980  1.0000
  C   C3        1.0  0.84774  0.06914  0.99709  1.0000
  N   N1        1.0  0.84919  0.00285  0.04315  1.0000
  S   S1        1.0  0.87113  0.95181  0.04770  1.0000
  O   O1        1.0  0.87329  0.94217  0.09488  1.0000
  O   O2        1.0  0.84840  0.92265  0.01681  1.0000
  C   C4        1.0  0.92640  0.96062  0.02866  1.0000
  C   C5        1.0  0.93917  0.94606  0.98641  1.0000
  C   C6        1.0  0.98298  0.95289  0.97169  1.0000
  C   C7        1.0  0.01426  0.97399  0.99890  1.0000
  N   N2        1.0  0.05918  0.98269  0.98780  1.0000
  C   C8        1.0  0.08451  0.97628  0.95018  1.0000
  S   S2        1.0  0.07039  0.95592  0.90034  1.0000
  N   N3        1.0  0.12883  0.98895  0.95421  1.0000
  C   C9        1.0  0.15121  0.00747  0.99046  1.0000
  O   O3        1.0  0.13152  0.01576  0.02553  1.0000
  C   C10       1.0  0.19828  0.01611  0.98329  1.0000
  C   C11       1.0  0.22702  0.00915  0.94779  1.0000
  C   C12       1.0  0.26956  0.02475  0.96122  1.0000
  C   C13       1.0  0.26449  0.04027  0.00397  1.0000
  O   O4        1.0  0.22170  0.03523  0.01758  1.0000
  C   C14       1.0  0.00082  0.98783  0.04162  1.0000
  C   C15       1.0  0.95721  0.98122  0.05664  1.0000
  H   H1        1.0  0.77523  0.97899  0.99717  1.0000
  H   H2        1.0  0.77281  0.02725  0.96327  1.0000
  H   H3        1.0  0.76666  0.03172  0.02189  1.0000
  H   H4        1.0  0.85159  0.00233  0.97266  1.0000
  H   H5        1.0  0.88388  0.07317  0.00048  1.0000
  H   H6        1.0  0.83198  0.08862  0.02367  1.0000
  H   H7        1.0  0.83775  0.08347  0.96504  1.0000
  H   H8        1.0  0.83570  0.01519  0.07174  1.0000
  H   H9        1.0  0.91551  0.92928  0.96464  1.0000
  H   H10       1.0  0.99104  0.94064  0.93875  1.0000
  H   H11       1.0  0.07678  0.99723  0.01312  1.0000
  H   H12       1.0  0.14641  0.98353  0.92606  1.0000
  H   H13       1.0  0.21896  0.99459  0.91584  1.0000
  H   H14       1.0  0.30015  0.02466  0.94215  1.0000
  H   H15       1.0  0.28685  0.05511  0.02804  1.0000
  H   H16       1.0  0.02437  0.00406  0.06398  1.0000
  H   H17       1.0  0.94770  0.99209  0.08989  1.0000
