data_image0
_chemical_formula_structural       C3NC2NSC9H30
_chemical_formula_sum              "C14 N2 S1 H30"
_cell_length_a       30
_cell_length_b       30
_cell_length_c       30
_cell_angle_alpha    90
_cell_angle_beta     90
_cell_angle_gamma    90

_space_group_name_H-M_alt    "P 1"
_space_group_IT_number       1

loop_
  _space_group_symop_operation_xyz
  'x, y, z'

loop_
  _atom_site_type_symbol
  _atom_site_label
  _atom_site_symmetry_multiplicity
  _atom_site_fract_x
  _atom_site_fract_y
  _atom_site_fract_z
  _atom_site_occupancy
  C   C1        1.0  0.92825  0.93396  0.99839  1.0000
  C   C2        1.0  0.93370  0.97365  0.03045  1.0000
  C   C3        1.0  0.89797  0.97106  0.06687  1.0000
  N   N1        1.0  0.94123  0.01822  0.00963  1.0000
  C   C4        1.0  0.98124  0.01819  0.97973  1.0000
  C   C5        1.0  0.02590  0.00113  0.00080  1.0000
  N   N2        1.0  0.03571  0.02512  0.04208  1.0000
  S   S1        1.0  0.07164  0.00986  0.96167  1.0000
  C   C6        1.0  0.11159  0.96906  0.98277  1.0000
  C   C7        1.0  0.15041  0.96232  0.94987  1.0000
  C   C8        1.0  0.19285  0.97279  0.97590  1.0000
  C   C9        1.0  0.18022  0.96401  0.02410  1.0000
  C   C10       1.0  0.13323  0.98284  0.02691  1.0000
  C   C11       1.0  0.90236  0.04434  0.99180  1.0000
  C   C12       1.0  0.91667  0.08484  0.96256  1.0000
  C   C13       1.0  0.86994  0.01696  0.96293  1.0000
  C   C14       1.0  0.87627  0.06579  0.03086  1.0000
  H   H1        1.0  0.95504  0.93218  0.97375  1.0000
  H   H2        1.0  0.89649  0.93433  0.98065  1.0000
  H   H3        1.0  0.92949  0.90263  0.01717  1.0000
  H   H4        1.0  0.96415  0.96642  0.04932  1.0000
  H   H5        1.0  0.86415  0.97150  0.05337  1.0000
  H   H6        1.0  0.90135  0.93979  0.08551  1.0000
  H   H7        1.0  0.90188  0.99803  0.09115  1.0000
  H   H8        1.0  0.98852  0.05256  0.96987  1.0000
  H   H9        1.0  0.97387  0.99967  0.94906  1.0000
  H   H10       1.0  0.02337  0.96539  0.00751  1.0000
  H   H11       1.0  0.00585  0.02980  0.05794  1.0000
  H   H12       1.0  0.04544  0.05643  0.03315  1.0000
  H   H13       1.0  0.09425  0.93712  0.98662  1.0000
  H   H14       1.0  0.15112  0.92727  0.93935  1.0000
  H   H15       1.0  0.14841  0.98248  0.91949  1.0000
  H   H16       1.0  0.22113  0.95251  0.96500  1.0000
  H   H17       1.0  0.20176  0.00797  0.97148  1.0000
  H   H18       1.0  0.18000  0.92811  0.03092  1.0000
  H   H19       1.0  0.20303  0.98006  0.04759  1.0000
  H   H20       1.0  0.13515  0.01920  0.03039  1.0000
  H   H21       1.0  0.11529  0.96959  0.05578  1.0000
  H   H22       1.0  0.93971  0.10682  0.98050  1.0000
  H   H23       1.0  0.93215  0.07434  0.93117  1.0000
  H   H24       1.0  0.88783  0.10529  0.95317  1.0000
  H   H25       1.0  0.88741  0.00029  0.93553  1.0000
  H   H26       1.0  0.85180  0.99195  0.98223  1.0000
  H   H27       1.0  0.84448  0.03845  0.94785  1.0000
  H   H28       1.0  0.89894  0.08193  0.05455  1.0000
  H   H29       1.0  0.85553  0.04217  0.04911  1.0000
  H   H30       1.0  0.85326  0.09156  0.01885  1.0000
