data_image0
_chemical_formula_structural       C7OCONC3NC4NOH23
_chemical_formula_sum              "C15 O3 N3 H23"
_cell_length_a       30
_cell_length_b       30
_cell_length_c       30
_cell_angle_alpha    90
_cell_angle_beta     90
_cell_angle_gamma    90

_space_group_name_H-M_alt    "P 1"
_space_group_IT_number       1

loop_
  _space_group_symop_operation_xyz
  'x, y, z'

loop_
  _atom_site_type_symbol
  _atom_site_label
  _atom_site_symmetry_multiplicity
  _atom_site_fract_x
  _atom_site_fract_y
  _atom_site_fract_z
  _atom_site_occupancy
  C   C1        1.0  0.83103  0.00157  0.99797  1.0000
  C   C2        1.0  0.86941  0.98032  0.02380  1.0000
  C   C3        1.0  0.85548  0.97388  0.07255  1.0000
  C   C4        1.0  0.91297  0.00758  0.02191  1.0000
  C   C5        1.0  0.93323  0.01269  0.97508  1.0000
  C   C6        1.0  0.93925  0.96895  0.94972  1.0000
  C   C7        1.0  0.91707  0.05295  0.94527  1.0000
  O   O1        1.0  0.88461  0.08377  0.96339  1.0000
  C   C8        1.0  0.96627  0.06910  0.94873  1.0000
  O   O2        1.0  0.98886  0.09805  0.93220  1.0000
  N   N1        1.0  0.97619  0.03672  0.97846  1.0000
  C   C9        1.0  0.01918  0.02282  0.99482  1.0000
  C   C10       1.0  0.05088  0.00705  0.95826  1.0000
  C   C11       1.0  0.09305  0.99059  0.97782  1.0000
  N   N2        1.0  0.12694  0.01299  0.99407  1.0000
  C   C12       1.0  0.15524  0.97950  0.00687  1.0000
  C   C13       1.0  0.20137  0.98981  0.02812  1.0000
  C   C14       1.0  0.20599  0.98732  0.07817  1.0000
  C   C15       1.0  0.22907  0.95352  0.04924  1.0000
  N   N3        1.0  0.14003  0.93816  0.99951  1.0000
  O   O3        1.0  0.09836  0.94545  0.98014  1.0000
  H   H1        1.0  0.80058  0.98170  0.00150  1.0000
  H   H2        1.0  0.82380  0.03519  0.01020  1.0000
  H   H3        1.0  0.83842  0.00349  0.96232  1.0000
  H   H4        1.0  0.87536  0.94706  0.00988  1.0000
  H   H5        1.0  0.82531  0.95343  0.07486  1.0000
  H   H6        1.0  0.84869  0.00591  0.08873  1.0000
  H   H7        1.0  0.88175  0.95699  0.09146  1.0000
  H   H8        1.0  0.90755  0.04046  0.03703  1.0000
  H   H9        1.0  0.93738  0.99067  0.04336  1.0000
  H   H10       1.0  0.90701  0.95471  0.94031  1.0000
  H   H11       1.0  0.95796  0.97371  0.91870  1.0000
  H   H12       1.0  0.95707  0.94429  0.96988  1.0000
  H   H13       1.0  0.90788  0.04372  0.91113  1.0000
  H   H14       1.0  0.89112  0.11191  0.94851  1.0000
  H   H15       1.0  0.03380  0.05163  0.01195  1.0000
  H   H16       1.0  0.01390  0.99675  0.01986  1.0000
  H   H17       1.0  0.03536  0.98068  0.93838  1.0000
  H   H18       1.0  0.05822  0.03445  0.93524  1.0000
  H   H19       1.0  0.21920  0.01639  0.01124  1.0000
  H   H20       1.0  0.17765  0.97618  0.09771  1.0000
  H   H21       1.0  0.22616  0.01251  0.09438  1.0000
  H   H22       1.0  0.21635  0.91968  0.04942  1.0000
  H   H23       1.0  0.26500  0.95570  0.04576  1.0000
