data_image0
_chemical_formula_structural       C6NCONC6F3C5SH27
_chemical_formula_sum              "C18 N2 O1 F3 S1 H27"
_cell_length_a       30
_cell_length_b       30
_cell_length_c       30
_cell_angle_alpha    90
_cell_angle_beta     90
_cell_angle_gamma    90

_space_group_name_H-M_alt    "P 1"
_space_group_IT_number       1

loop_
  _space_group_symop_operation_xyz
  'x, y, z'

loop_
  _atom_site_type_symbol
  _atom_site_label
  _atom_site_symmetry_multiplicity
  _atom_site_fract_x
  _atom_site_fract_y
  _atom_site_fract_z
  _atom_site_occupancy
  C   C1        1.0  0.15011  0.93076  0.98669  1.0000
  C   C2        1.0  0.14746  0.97977  0.00281  1.0000
  C   C3        1.0  0.14265  0.97826  0.05400  1.0000
  C   C4        1.0  0.10715  0.00356  0.98005  1.0000
  C   C5        1.0  0.06033  0.98573  0.99067  1.0000
  C   C6        1.0  0.03725  0.01139  0.02825  1.0000
  N   N1        1.0  0.99363  0.99313  0.03832  1.0000
  C   C7        1.0  0.95754  0.00267  0.01187  1.0000
  O   O1        1.0  0.95825  0.02796  0.97995  1.0000
  N   N2        1.0  0.92042  0.98003  0.02620  1.0000
  C   C8        1.0  0.87739  0.98670  0.00463  1.0000
  C   C9        1.0  0.84647  0.94761  0.01571  1.0000
  C   C10       1.0  0.79991  0.95389  0.99631  1.0000
  C   C11       1.0  0.77943  0.99829  0.01043  1.0000
  C   C12       1.0  0.80929  0.03867  0.00047  1.0000
  C   C13       1.0  0.80950  0.05080  0.95106  1.0000
  F   F1        1.0  0.76753  0.05915  0.93676  1.0000
  F   F2        1.0  0.83365  0.08806  0.94372  1.0000
  F   F3        1.0  0.82627  0.01813  0.92524  1.0000
  C   C14       1.0  0.85648  0.03126  0.01892  1.0000
  C   C15       1.0  0.19043  0.00480  0.98942  1.0000
  C   C16       1.0  0.22190  0.99350  0.95748  1.0000
  C   C17       1.0  0.25708  0.02520  0.95385  1.0000
  C   C18       1.0  0.25160  0.06025  0.98281  1.0000
  S   S1        1.0  0.20426  0.05506  0.01385  1.0000
  H   H1        1.0  0.12206  0.91080  0.99882  1.0000
  H   H2        1.0  0.14996  0.92856  0.95022  1.0000
  H   H3        1.0  0.18061  0.91452  0.99867  1.0000
  H   H4        1.0  0.13620  0.01130  0.06814  1.0000
  H   H5        1.0  0.17302  0.96530  0.06972  1.0000
  H   H6        1.0  0.11517  0.95649  0.06425  1.0000
  H   H7        1.0  0.10794  0.03944  0.98723  1.0000
  H   H8        1.0  0.11184  0.00101  0.94378  1.0000
  H   H9        1.0  0.03996  0.98910  0.96046  1.0000
  H   H10       1.0  0.06077  0.95005  0.99825  1.0000
  H   H11       1.0  0.05642  0.00981  0.05918  1.0000
  H   H12       1.0  0.03341  0.04654  0.01907  1.0000
  H   H13       1.0  0.99278  0.96301  0.05326  1.0000
  H   H14       1.0  0.92012  0.97388  0.05929  1.0000
  H   H15       1.0  0.88344  0.98723  0.96860  1.0000
  H   H16       1.0  0.86083  0.91643  0.00311  1.0000
  H   H17       1.0  0.84390  0.94374  0.05202  1.0000
  H   H18       1.0  0.77838  0.92654  0.00746  1.0000
  H   H19       1.0  0.80133  0.95169  0.95989  1.0000
  H   H20       1.0  0.74679  0.00236  0.99450  1.0000
  H   H21       1.0  0.77315  0.99715  0.04648  1.0000
  H   H22       1.0  0.79502  0.06745  0.01804  1.0000
  H   H23       1.0  0.85485  0.03227  0.05551  1.0000
  H   H24       1.0  0.87807  0.05914  0.00928  1.0000
  H   H25       1.0  0.22009  0.96367  0.93723  1.0000
  H   H26       1.0  0.28489  0.02243  0.93099  1.0000
  H   H27       1.0  0.27303  0.08892  0.98708  1.0000
