data_image0
_chemical_formula_structural       C3ONC5NC3OH22
_chemical_formula_sum              "C11 O2 N2 H22"
_cell_length_a       30
_cell_length_b       30
_cell_length_c       30
_cell_angle_alpha    90
_cell_angle_beta     90
_cell_angle_gamma    90

_space_group_name_H-M_alt    "P 1"
_space_group_IT_number       1

loop_
  _space_group_symop_operation_xyz
  'x, y, z'

loop_
  _atom_site_type_symbol
  _atom_site_label
  _atom_site_symmetry_multiplicity
  _atom_site_fract_x
  _atom_site_fract_y
  _atom_site_fract_z
  _atom_site_occupancy
  C   C1        1.0  0.94586  0.92894  0.04721  1.0000
  C   C2        1.0  0.97139  0.96895  0.02802  1.0000
  C   C3        1.0  0.01589  0.95293  0.00660  1.0000
  O   O1        1.0  0.02055  0.91372  0.99485  1.0000
  N   N1        1.0  0.05019  0.98390  0.00131  1.0000
  C   C4        1.0  0.04699  0.03104  0.01356  1.0000
  C   C5        1.0  0.08059  0.05979  0.98849  1.0000
  C   C6        1.0  0.12847  0.04397  0.99553  1.0000
  C   C7        1.0  0.13194  0.99366  0.00276  1.0000
  C   C8        1.0  0.09257  0.96860  0.98269  1.0000
  N   N2        1.0  0.94553  0.99642  0.99565  1.0000
  C   C9        1.0  0.92999  0.97097  0.95698  1.0000
  C   C10       1.0  0.90909  0.02107  0.01767  1.0000
  C   C11       1.0  0.88637  0.05661  0.98832  1.0000
  O   O2        1.0  0.85359  0.03792  0.95944  1.0000
  H   H1        1.0  0.93577  0.90524  0.02136  1.0000
  H   H2        1.0  0.91607  0.93944  0.06544  1.0000
  H   H3        1.0  0.96703  0.91063  0.07071  1.0000
  H   H4        1.0  0.98093  0.98990  0.05647  1.0000
  H   H5        1.0  0.01354  0.04374  0.00713  1.0000
  H   H6        1.0  0.05285  0.03319  0.04957  1.0000
  H   H7        1.0  0.07287  0.05856  0.95274  1.0000
  H   H8        1.0  0.07749  0.09474  0.99864  1.0000
  H   H9        1.0  0.14851  0.05380  0.96658  1.0000
  H   H10       1.0  0.14313  0.06107  0.02433  1.0000
  H   H11       1.0  0.13311  0.98699  0.03872  1.0000
  H   H12       1.0  0.16336  0.98129  0.98882  1.0000
  H   H13       1.0  0.09682  0.93279  0.98835  1.0000
  H   H14       1.0  0.09109  0.97382  0.94655  1.0000
  H   H15       1.0  0.91904  0.99341  0.93038  1.0000
  H   H16       1.0  0.95677  0.95109  0.94218  1.0000
  H   H17       1.0  0.90236  0.94859  0.96524  1.0000
  H   H18       1.0  0.92327  0.03885  0.04630  1.0000
  H   H19       1.0  0.88374  0.99800  0.03033  1.0000
  H   H20       1.0  0.91078  0.07474  0.96814  1.0000
  H   H21       1.0  0.86939  0.08096  0.00958  1.0000
  H   H22       1.0  0.83309  0.02068  0.97765  1.0000
