data_image0
_chemical_formula_structural       C3N2COC6NCH13
_chemical_formula_sum              "C11 N3 O1 H13"
_cell_length_a       30
_cell_length_b       30
_cell_length_c       30
_cell_angle_alpha    90
_cell_angle_beta     90
_cell_angle_gamma    90

_space_group_name_H-M_alt    "P 1"
_space_group_IT_number       1

loop_
  _space_group_symop_operation_xyz
  'x, y, z'

loop_
  _atom_site_type_symbol
  _atom_site_label
  _atom_site_symmetry_multiplicity
  _atom_site_fract_x
  _atom_site_fract_y
  _atom_site_fract_z
  _atom_site_occupancy
  C   C1        1.0  0.12178  0.96575  0.98205  1.0000
  C   C2        1.0  0.12787  0.01529  0.98872  1.0000
  C   C3        1.0  0.17121  0.03486  0.97221  1.0000
  N   N1        1.0  0.09980  0.04228  0.00787  1.0000
  N   N2        1.0  0.05845  0.02674  0.01946  1.0000
  C   C4        1.0  0.02825  0.01264  0.98717  1.0000
  O   O1        1.0  0.03679  0.00449  0.94806  1.0000
  C   C5        1.0  0.98224  0.00848  0.00536  1.0000
  C   C6        1.0  0.94832  0.99882  0.97783  1.0000
  C   C7        1.0  0.90179  0.99416  0.99218  1.0000
  C   C8        1.0  0.88944  0.97498  0.03279  1.0000
  C   C9        1.0  0.84447  0.97075  0.04372  1.0000
  C   C10       1.0  0.81300  0.98559  0.01339  1.0000
  N   N3        1.0  0.82340  0.00384  0.97364  1.0000
  C   C11       1.0  0.86737  0.00746  0.96393  1.0000
  H   H1        1.0  0.11255  0.95926  0.94741  1.0000
  H   H2        1.0  0.09668  0.95185  0.00443  1.0000
  H   H3        1.0  0.15337  0.94883  0.98888  1.0000
  H   H4        1.0  0.17131  0.07112  0.97594  1.0000
  H   H5        1.0  0.19882  0.02081  0.99140  1.0000
  H   H6        1.0  0.17558  0.02650  0.93701  1.0000
  H   H7        1.0  0.04529  0.04350  0.04574  1.0000
  H   H8        1.0  0.97742  0.01354  0.04075  1.0000
  H   H9        1.0  0.95438  0.99470  0.94224  1.0000
  H   H10       1.0  0.91435  0.96269  0.05602  1.0000
  H   H11       1.0  0.83422  0.95596  0.07507  1.0000
  H   H12       1.0  0.77757  0.98296  0.02040  1.0000
  H   H13       1.0  0.87429  0.02215  0.93152  1.0000
