data_image0
_chemical_formula_structural       C4NC4NCOCNCONC9SH20
_chemical_formula_sum              "C20 N4 O2 S1 H20"
_cell_length_a       30
_cell_length_b       30
_cell_length_c       30
_cell_angle_alpha    90
_cell_angle_beta     90
_cell_angle_gamma    90

_space_group_name_H-M_alt    "P 1"
_space_group_IT_number       1

loop_
  _space_group_symop_operation_xyz
  'x, y, z'

loop_
  _atom_site_type_symbol
  _atom_site_label
  _atom_site_symmetry_multiplicity
  _atom_site_fract_x
  _atom_site_fract_y
  _atom_site_fract_z
  _atom_site_occupancy
  C   C1        1.0  0.77572  0.06973  0.98145  1.0000
  C   C2        1.0  0.78315  0.03143  0.01426  1.0000
  C   C3        1.0  0.75196  0.99233  0.00443  1.0000
  C   C4        1.0  0.83124  0.01673  0.01621  1.0000
  N   N1        1.0  0.85468  0.01643  0.05336  1.0000
  C   C5        1.0  0.89726  0.00068  0.04518  1.0000
  C   C6        1.0  0.93121  0.99530  0.07700  1.0000
  C   C7        1.0  0.97288  0.97879  0.06389  1.0000
  C   C8        1.0  0.98146  0.96750  0.01958  1.0000
  N   N2        1.0  0.02446  0.95126  0.00986  1.0000
  C   C9        1.0  0.04062  0.93651  0.96915  1.0000
  O   O1        1.0  0.01899  0.93216  0.93457  1.0000
  C   C10       1.0  0.08933  0.92158  0.97118  1.0000
  N   N3        1.0  0.11794  0.95692  0.98668  1.0000
  C   C11       1.0  0.12645  0.96672  0.03181  1.0000
  O   O2        1.0  0.10973  0.94754  0.06371  1.0000
  N   N4        1.0  0.15554  0.00341  0.03222  1.0000
  C   C12       1.0  0.17213  0.02549  0.07124  1.0000
  C   C13       1.0  0.16298  0.01725  0.98815  1.0000
  C   C14       1.0  0.18774  0.05238  0.97187  1.0000
  C   C15       1.0  0.18829  0.05840  0.92559  1.0000
  C   C16       1.0  0.16432  0.02969  0.89711  1.0000
  C   C17       1.0  0.13938  0.99417  0.91422  1.0000
  C   C18       1.0  0.13939  0.98862  0.95990  1.0000
  C   C19       1.0  0.94805  0.97284  0.98752  1.0000
  C   C20       1.0  0.90624  0.98930  0.00105  1.0000
  S   S1        1.0  0.85926  0.99874  0.96946  1.0000
  H   H1        1.0  0.74137  0.08196  0.98358  1.0000
  H   H2        1.0  0.78164  0.05949  0.94686  1.0000
  H   H3        1.0  0.79798  0.09775  0.98880  1.0000
  H   H4        1.0  0.77448  0.04410  0.04756  1.0000
  H   H5        1.0  0.75779  0.97830  0.97119  1.0000
  H   H6        1.0  0.71711  0.00302  0.00603  1.0000
  H   H7        1.0  0.75660  0.96548  0.02879  1.0000
  H   H8        1.0  0.92476  0.00389  0.11150  1.0000
  H   H9        1.0  0.99852  0.97486  0.08921  1.0000
  H   H10       1.0  0.04603  0.94935  0.03598  1.0000
  H   H11       1.0  0.09149  0.89334  0.99428  1.0000
  H   H12       1.0  0.10018  0.91014  0.93828  1.0000
  H   H13       1.0  0.16334  0.00644  0.10104  1.0000
  H   H14       1.0  0.20852  0.02816  0.06915  1.0000
  H   H15       1.0  0.15731  0.05877  0.07360  1.0000
  H   H16       1.0  0.20597  0.07468  0.99364  1.0000
  H   H17       1.0  0.20736  0.08574  0.91130  1.0000
  H   H18       1.0  0.16512  0.03535  0.86125  1.0000
  H   H19       1.0  0.12079  0.97249  0.89208  1.0000
  H   H20       1.0  0.95323  0.96477  0.95276  1.0000
