data_image0
_chemical_formula_structural       C2NC2SC11NC2H28
_chemical_formula_sum              "C17 N2 S1 H28"
_cell_length_a       30
_cell_length_b       30
_cell_length_c       30
_cell_angle_alpha    90
_cell_angle_beta     90
_cell_angle_gamma    90

_space_group_name_H-M_alt    "P 1"
_space_group_IT_number       1

loop_
  _space_group_symop_operation_xyz
  'x, y, z'

loop_
  _atom_site_type_symbol
  _atom_site_label
  _atom_site_symmetry_multiplicity
  _atom_site_fract_x
  _atom_site_fract_y
  _atom_site_fract_z
  _atom_site_occupancy
  C   C1        1.0  0.99552  0.08821  0.01571  1.0000
  C   C2        1.0  0.97011  0.04838  0.99572  1.0000
  N   N1        1.0  0.99838  0.02310  0.96417  1.0000
  C   C3        1.0  0.03498  0.99681  0.98346  1.0000
  C   C4        1.0  0.02165  0.94703  0.98452  1.0000
  S   S1        1.0  0.06785  0.90748  0.98901  1.0000
  C   C5        1.0  0.11053  0.94496  0.00962  1.0000
  C   C6        1.0  0.12007  0.98462  0.97812  1.0000
  C   C7        1.0  0.14214  0.02183  0.00600  1.0000
  C   C8        1.0  0.15342  0.97057  0.94161  1.0000
  C   C9        1.0  0.07748  0.00343  0.95530  1.0000
  C   C10       1.0  0.94553  0.01978  0.02995  1.0000
  C   C11       1.0  0.96506  0.01054  0.07176  1.0000
  C   C12       1.0  0.94336  0.98441  0.10351  1.0000
  C   C13       1.0  0.90157  0.96692  0.09423  1.0000
  C   C14       1.0  0.88141  0.97582  0.05331  1.0000
  C   C15       1.0  0.90252  0.00234  0.02081  1.0000
  N   N2        1.0  0.88169  0.01133  0.97946  1.0000
  C   C16       1.0  0.88890  0.97465  0.94797  1.0000
  C   C17       1.0  0.83534  0.02611  0.98268  1.0000
  H   H1        1.0  0.97351  0.10812  0.03700  1.0000
  H   H2        1.0  0.00788  0.11012  0.98920  1.0000
  H   H3        1.0  0.02429  0.07826  0.03580  1.0000
  H   H4        1.0  0.94450  0.06423  0.97495  1.0000
  H   H5        1.0  0.01015  0.04501  0.94109  1.0000
  H   H6        1.0  0.04259  0.00807  0.01730  1.0000
  H   H7        1.0  0.99865  0.94043  0.01203  1.0000
  H   H8        1.0  0.00401  0.93805  0.95379  1.0000
  H   H9        1.0  0.09951  0.95663  0.04245  1.0000
  H   H10       1.0  0.14093  0.92556  0.01547  1.0000
  H   H11       1.0  0.15181  0.05016  0.98506  1.0000
  H   H12       1.0  0.11948  0.03434  0.03176  1.0000
  H   H13       1.0  0.17229  0.00965  0.02266  1.0000
  H   H14       1.0  0.16121  0.99858  0.91948  1.0000
  H   H15       1.0  0.18483  0.95890  0.95614  1.0000
  H   H16       1.0  0.14007  0.94357  0.92097  1.0000
  H   H17       1.0  0.08255  0.03901  0.94828  1.0000
  H   H18       1.0  0.07251  0.98762  0.92261  1.0000
  H   H19       1.0  0.99782  0.02350  0.08011  1.0000
  H   H20       1.0  0.95924  0.97762  0.13535  1.0000
  H   H21       1.0  0.88460  0.94629  0.11868  1.0000
  H   H22       1.0  0.84891  0.96130  0.04674  1.0000
  H   H23       1.0  0.92430  0.96659  0.94444  1.0000
  H   H24       1.0  0.87104  0.94445  0.95820  1.0000
  H   H25       1.0  0.87676  0.98426  0.91490  1.0000
  H   H26       1.0  0.82468  0.03969  0.95050  1.0000
  H   H27       1.0  0.81262  0.99882  0.99122  1.0000
  H   H28       1.0  0.83174  0.05284  0.00732  1.0000
