data_image0
_chemical_formula_structural       C2NC5ClC6NCNCH18
_chemical_formula_sum              "C15 N3 Cl1 H18"
_cell_length_a       30
_cell_length_b       30
_cell_length_c       30
_cell_angle_alpha    90
_cell_angle_beta     90
_cell_angle_gamma    90

_space_group_name_H-M_alt    "P 1"
_space_group_IT_number       1

loop_
  _space_group_symop_operation_xyz
  'x, y, z'

loop_
  _atom_site_type_symbol
  _atom_site_label
  _atom_site_symmetry_multiplicity
  _atom_site_fract_x
  _atom_site_fract_y
  _atom_site_fract_z
  _atom_site_occupancy
  C   C1        1.0  0.04783  0.91262  0.97302  1.0000
  C   C2        1.0  0.02851  0.95598  0.99192  1.0000
  N   N1        1.0  0.00062  0.94675  0.03101  1.0000
  C   C3        1.0  0.95357  0.95840  0.02706  1.0000
  C   C4        1.0  0.92757  0.93384  0.99007  1.0000
  C   C5        1.0  0.88710  0.96337  0.97942  1.0000
  C   C6        1.0  0.90493  0.00900  0.98939  1.0000
  C   C7        1.0  0.88778  0.05010  0.97709  1.0000
  Cl  Cl1       1.0  0.84099  0.05434  0.94430  1.0000
  C   C8        1.0  0.90900  0.08876  0.99206  1.0000
  C   C9        1.0  0.94667  0.08597  0.01965  1.0000
  C   C10       1.0  0.96354  0.04454  0.03245  1.0000
  C   C11       1.0  0.94282  0.00630  0.01672  1.0000
  C   C12       1.0  0.06490  0.98713  0.00603  1.0000
  C   C13       1.0  0.07786  0.02639  0.98568  1.0000
  N   N2        1.0  0.11225  0.04301  0.01029  1.0000
  C   C14       1.0  0.13657  0.08370  0.00230  1.0000
  N   N3        1.0  0.12325  0.01726  0.04524  1.0000
  C   C15       1.0  0.09425  0.98356  0.04285  1.0000
  H   H1        1.0  0.06829  0.89494  0.99761  1.0000
  H   H2        1.0  0.02127  0.89005  0.96217  1.0000
  H   H3        1.0  0.06909  0.91950  0.94412  1.0000
  H   H4        1.0  0.00961  0.97210  0.96509  1.0000
  H   H5        1.0  0.00321  0.91405  0.03958  1.0000
  H   H6        1.0  0.93770  0.95085  0.05918  1.0000
  H   H7        1.0  0.94750  0.93040  0.95960  1.0000
  H   H8        1.0  0.91777  0.90014  0.00012  1.0000
  H   H9        1.0  0.85909  0.95575  0.00155  1.0000
  H   H10       1.0  0.87696  0.95944  0.94463  1.0000
  H   H11       1.0  0.89618  0.12135  0.98276  1.0000
  H   H12       1.0  0.96265  0.11628  0.03146  1.0000
  H   H13       1.0  0.99239  0.04227  0.05427  1.0000
  H   H14       1.0  0.06532  0.04341  0.95650  1.0000
  H   H15       1.0  0.17163  0.07530  0.99708  1.0000
  H   H16       1.0  0.12320  0.10023  0.97273  1.0000
  H   H17       1.0  0.13274  0.10528  0.03140  1.0000
  H   H18       1.0  0.09543  0.95765  0.06792  1.0000
