data_image0
_chemical_formula_structural       C2NCOC3BrC3OCONC8H25
_chemical_formula_sum              "C18 N2 O3 Br1 H25"
_cell_length_a       30
_cell_length_b       30
_cell_length_c       30
_cell_angle_alpha    90
_cell_angle_beta     90
_cell_angle_gamma    90

_space_group_name_H-M_alt    "P 1"
_space_group_IT_number       1

loop_
  _space_group_symop_operation_xyz
  'x, y, z'

loop_
  _atom_site_type_symbol
  _atom_site_label
  _atom_site_symmetry_multiplicity
  _atom_site_fract_x
  _atom_site_fract_y
  _atom_site_fract_z
  _atom_site_occupancy
  C   C1        1.0  0.96543  0.05459  0.94373  1.0000
  C   C2        1.0  0.95456  0.03137  0.98760  1.0000
  N   N1        1.0  0.91209  0.00802  0.98494  1.0000
  C   C3        1.0  0.87215  0.02984  0.99052  1.0000
  O   O1        1.0  0.86874  0.07030  0.99451  1.0000
  C   C4        1.0  0.83238  0.00059  0.99019  1.0000
  C   C5        1.0  0.82596  0.97192  0.95387  1.0000
  C   C6        1.0  0.78820  0.94494  0.95249  1.0000
  Br  Br1       1.0  0.77921  0.90629  0.90354  1.0000
  C   C7        1.0  0.75686  0.94627  0.98682  1.0000
  C   C8        1.0  0.76327  0.97484  0.02304  1.0000
  C   C9        1.0  0.80104  0.00197  0.02470  1.0000
  O   O2        1.0  0.80776  0.02878  0.06085  1.0000
  C   C10       1.0  0.99088  0.99701  0.99932  1.0000
  O   O3        1.0  0.98385  0.95659  0.99815  1.0000
  N   N2        1.0  0.03152  0.01524  0.01085  1.0000
  C   C11       1.0  0.07101  0.98775  0.01918  1.0000
  C   C12       1.0  0.09329  0.97579  0.97456  1.0000
  C   C13       1.0  0.12091  0.01315  0.95338  1.0000
  C   C14       1.0  0.17137  0.00757  0.95832  1.0000
  C   C15       1.0  0.19054  0.01270  0.00532  1.0000
  C   C16       1.0  0.17813  0.97517  0.03748  1.0000
  C   C17       1.0  0.14083  0.98597  0.07048  1.0000
  C   C18       1.0  0.10047  0.01178  0.05334  1.0000
  H   H1        1.0  0.93932  0.07836  0.93450  1.0000
  H   H2        1.0  0.99696  0.07285  0.94574  1.0000
  H   H3        1.0  0.96846  0.03039  0.91652  1.0000
  H   H4        1.0  0.95258  0.05582  0.01469  1.0000
  H   H5        1.0  0.91342  0.97419  0.98651  1.0000
  H   H6        1.0  0.84997  0.97131  0.92674  1.0000
  H   H7        1.0  0.72741  0.92516  0.98572  1.0000
  H   H8        1.0  0.73878  0.97523  0.04970  1.0000
  H   H9        1.0  0.78072  0.03025  0.07855  1.0000
  H   H10       1.0  0.03590  0.04850  0.00716  1.0000
  H   H11       1.0  0.05921  0.95654  0.03419  1.0000
  H   H12       1.0  0.11329  0.94551  0.97824  1.0000
  H   H13       1.0  0.06705  0.96654  0.95074  1.0000
  H   H14       1.0  0.11047  0.04613  0.96505  1.0000
  H   H15       1.0  0.11389  0.01285  0.91745  1.0000
  H   H16       1.0  0.18731  0.03283  0.93717  1.0000
  H   H17       1.0  0.18145  0.97523  0.94452  1.0000
  H   H18       1.0  0.22698  0.01229  0.00171  1.0000
  H   H19       1.0  0.18248  0.04552  0.01911  1.0000
  H   H20       1.0  0.20776  0.96726  0.05751  1.0000
  H   H21       1.0  0.17079  0.94432  0.01945  1.0000
  H   H22       1.0  0.15550  0.00578  0.09755  1.0000
  H   H23       1.0  0.12961  0.95483  0.08604  1.0000
  H   H24       1.0  0.11067  0.04459  0.04094  1.0000
  H   H25       1.0  0.07960  0.01929  0.08253  1.0000
