data_image0
_chemical_formula_structural       C2NC2SCO2C6F3CH12
_chemical_formula_sum              "C12 N1 S1 O2 F3 H12"
_cell_length_a       30
_cell_length_b       30
_cell_length_c       30
_cell_angle_alpha    90
_cell_angle_beta     90
_cell_angle_gamma    90

_space_group_name_H-M_alt    "P 1"
_space_group_IT_number       1

loop_
  _space_group_symop_operation_xyz
  'x, y, z'

loop_
  _atom_site_type_symbol
  _atom_site_label
  _atom_site_symmetry_multiplicity
  _atom_site_fract_x
  _atom_site_fract_y
  _atom_site_fract_z
  _atom_site_occupancy
  C   C1        1.0  0.99385  0.92481  0.94069  1.0000
  C   C2        1.0  0.01803  0.96399  0.96305  1.0000
  N   N1        1.0  0.03708  0.94877  0.00571  1.0000
  C   C3        1.0  0.07513  0.97580  0.02031  1.0000
  C   C4        1.0  0.09247  0.95854  0.06512  1.0000
  S   S1        1.0  0.12749  0.00370  0.08360  1.0000
  C   C5        1.0  0.09353  0.04131  0.05416  1.0000
  O   O1        1.0  0.09629  0.08156  0.05939  1.0000
  O   O2        1.0  0.06404  0.02169  0.02573  1.0000
  C   C6        1.0  0.98561  0.00250  0.96871  1.0000
  C   C7        1.0  0.98811  0.03958  0.94035  1.0000
  C   C8        1.0  0.95834  0.07502  0.94492  1.0000
  C   C9        1.0  0.92560  0.07392  0.97789  1.0000
  C   C10       1.0  0.92239  0.03739  0.00684  1.0000
  C   C11       1.0  0.88679  0.03560  0.04226  1.0000
  F   F1        1.0  0.90088  0.01607  0.08079  1.0000
  F   F2        1.0  0.87112  0.07654  0.05421  1.0000
  F   F3        1.0  0.85044  0.01186  0.02894  1.0000
  C   C12       1.0  0.95232  0.00175  0.00169  1.0000
  H   H1        1.0  0.01698  0.89735  0.93396  1.0000
  H   H2        1.0  0.97931  0.93500  0.90875  1.0000
  H   H3        1.0  0.96675  0.91177  0.96146  1.0000
  H   H4        1.0  0.04518  0.97384  0.94056  1.0000
  H   H5        1.0  0.04749  0.91664  0.00217  1.0000
  H   H6        1.0  0.10154  0.97342  0.99500  1.0000
  H   H7        1.0  0.06546  0.95443  0.08934  1.0000
  H   H8        1.0  0.11080  0.92720  0.06199  1.0000
  H   H9        1.0  0.01351  0.04127  0.91452  1.0000
  H   H10       1.0  0.96079  0.10364  0.92281  1.0000
  H   H11       1.0  0.90267  0.10187  0.98109  1.0000
  H   H12       1.0  0.95001  0.97316  0.02399  1.0000
