data_image0
_chemical_formula_structural       C2NCOC4OC4NCNCNC2H18
_chemical_formula_sum              "C15 N4 O2 H18"
_cell_length_a       30
_cell_length_b       30
_cell_length_c       30
_cell_angle_alpha    90
_cell_angle_beta     90
_cell_angle_gamma    90

_space_group_name_H-M_alt    "P 1"
_space_group_IT_number       1

loop_
  _space_group_symop_operation_xyz
  'x, y, z'

loop_
  _atom_site_type_symbol
  _atom_site_label
  _atom_site_symmetry_multiplicity
  _atom_site_fract_x
  _atom_site_fract_y
  _atom_site_fract_z
  _atom_site_occupancy
  C   C1        1.0  0.00609  0.93817  0.08600  1.0000
  C   C2        1.0  0.00809  0.98021  0.05708  1.0000
  N   N1        1.0  0.04296  0.97681  0.02363  1.0000
  C   C3        1.0  0.08742  0.98260  0.03418  1.0000
  O   O1        1.0  0.10011  0.99218  0.07187  1.0000
  C   C4        1.0  0.11897  0.97653  0.99410  1.0000
  C   C5        1.0  0.11346  0.01473  0.96093  1.0000
  C   C6        1.0  0.16049  0.02336  0.94538  1.0000
  C   C7        1.0  0.18709  0.01253  0.98668  1.0000
  O   O2        1.0  0.16516  0.97499  0.00619  1.0000
  C   C8        1.0  0.96429  0.99115  0.03408  1.0000
  C   C9        1.0  0.95100  0.03586  0.03047  1.0000
  C   C10       1.0  0.91145  0.04743  0.00874  1.0000
  C   C11       1.0  0.88443  0.01436  0.98985  1.0000
  N   N2        1.0  0.84437  0.02678  0.96800  1.0000
  C   C12       1.0  0.81314  0.00014  0.94761  1.0000
  N   N3        1.0  0.78065  0.02436  0.93100  1.0000
  C   C13       1.0  0.79315  0.06654  0.94205  1.0000
  N   N4        1.0  0.83139  0.06998  0.96439  1.0000
  C   C14       1.0  0.89756  0.96967  0.99278  1.0000
  C   C15       1.0  0.93728  0.95833  0.01455  1.0000
  H   H1        1.0  0.03689  0.93417  0.10519  1.0000
  H   H2        1.0  0.00220  0.90791  0.06593  1.0000
  H   H3        1.0  0.97834  0.93983  0.10967  1.0000
  H   H4        1.0  0.01671  0.00790  0.07941  1.0000
  H   H5        1.0  0.03443  0.96578  0.99296  1.0000
  H   H6        1.0  0.11121  0.94448  0.97834  1.0000
  H   H7        1.0  0.10003  0.04459  0.97722  1.0000
  H   H8        1.0  0.09088  0.00621  0.93357  1.0000
  H   H9        1.0  0.16897  0.00003  0.91857  1.0000
  H   H10       1.0  0.16589  0.05731  0.93331  1.0000
  H   H11       1.0  0.18642  0.04003  0.01070  1.0000
  H   H12       1.0  0.22178  0.00414  0.97932  1.0000
  H   H13       1.0  0.97152  0.06224  0.04467  1.0000
  H   H14       1.0  0.90223  0.08250  0.00686  1.0000
  H   H15       1.0  0.81547  0.96429  0.94582  1.0000
  H   H16       1.0  0.77375  0.09577  0.93353  1.0000
  H   H17       1.0  0.87796  0.94276  0.97856  1.0000
  H   H18       1.0  0.94677  0.92336  0.01597  1.0000
