data_image0
_chemical_formula_structural       C2NC4NC4OC6H26
_chemical_formula_sum              "C16 N2 O1 H26"
_cell_length_a       30
_cell_length_b       30
_cell_length_c       30
_cell_angle_alpha    90
_cell_angle_beta     90
_cell_angle_gamma    90

_space_group_name_H-M_alt    "P 1"
_space_group_IT_number       1

loop_
  _space_group_symop_operation_xyz
  'x, y, z'

loop_
  _atom_site_type_symbol
  _atom_site_label
  _atom_site_symmetry_multiplicity
  _atom_site_fract_x
  _atom_site_fract_y
  _atom_site_fract_z
  _atom_site_occupancy
  C   C1        1.0  0.02834  0.91203  0.97202  1.0000
  C   C2        1.0  0.05622  0.94518  0.99891  1.0000
  N   N1        1.0  0.02992  0.97031  0.03160  1.0000
  C   C3        1.0  0.99404  0.99774  0.01213  1.0000
  C   C4        1.0  0.99331  0.04387  0.03428  1.0000
  C   C5        1.0  0.95634  0.07316  0.01463  1.0000
  C   C6        1.0  0.91961  0.04664  0.99094  1.0000
  N   N2        1.0  0.90934  0.00632  0.01611  1.0000
  C   C7        1.0  0.86756  0.98349  0.00424  1.0000
  C   C8        1.0  0.82745  0.00941  0.02249  1.0000
  C   C9        1.0  0.86149  0.97465  0.95427  1.0000
  C   C10       1.0  0.94763  0.97542  0.01843  1.0000
  O   O1        1.0  0.07829  0.97371  0.96776  1.0000
  C   C11       1.0  0.11718  0.99427  0.97956  1.0000
  C   C12       1.0  0.13984  0.98981  0.01993  1.0000
  C   C13       1.0  0.17947  0.01328  0.02730  1.0000
  C   C14       1.0  0.19664  0.04123  0.99442  1.0000
  C   C15       1.0  0.17423  0.04579  0.95405  1.0000
  C   C16       1.0  0.13470  0.02237  0.94675  1.0000
  H   H1        1.0  0.00592  0.92880  0.94861  1.0000
  H   H2        1.0  0.00890  0.89011  0.99375  1.0000
  H   H3        1.0  0.05030  0.89114  0.95160  1.0000
  H   H4        1.0  0.08059  0.92474  0.01691  1.0000
  H   H5        1.0  0.05172  0.99107  0.04730  1.0000
  H   H6        1.0  0.99988  0.00334  0.97644  1.0000
  H   H7        1.0  0.98774  0.04023  0.07029  1.0000
  H   H8        1.0  0.02547  0.06084  0.03041  1.0000
  H   H9        1.0  0.97088  0.09672  0.99075  1.0000
  H   H10       1.0  0.94187  0.09333  0.04149  1.0000
  H   H11       1.0  0.93016  0.03850  0.95687  1.0000
  H   H12       1.0  0.89051  0.06849  0.98793  1.0000
  H   H13       1.0  0.86702  0.95113  0.02139  1.0000
  H   H14       1.0  0.79677  0.99011  0.01802  1.0000
  H   H15       1.0  0.82281  0.04143  0.00563  1.0000
  H   H16       1.0  0.83122  0.01580  0.05826  1.0000
  H   H17       1.0  0.85794  0.00563  0.93528  1.0000
  H   H18       1.0  0.88959  0.95597  0.94041  1.0000
  H   H19       1.0  0.83135  0.95483  0.94853  1.0000
  H   H20       1.0  0.94627  0.95913  0.05117  1.0000
  H   H21       1.0  0.94447  0.94889  0.99354  1.0000
  H   H22       1.0  0.12787  0.96847  0.04654  1.0000
  H   H23       1.0  0.19697  0.00966  0.05883  1.0000
  H   H24       1.0  0.22744  0.05939  0.00026  1.0000
  H   H25       1.0  0.18743  0.06751  0.92824  1.0000
  H   H26       1.0  0.11730  0.02606  0.91517  1.0000
