data_image0
_chemical_formula_structural       C2NCONC4NCNC10H22
_chemical_formula_sum              "C18 N4 O1 H22"
_cell_length_a       30
_cell_length_b       30
_cell_length_c       30
_cell_angle_alpha    90
_cell_angle_beta     90
_cell_angle_gamma    90

_space_group_name_H-M_alt    "P 1"
_space_group_IT_number       1

loop_
  _space_group_symop_operation_xyz
  'x, y, z'

loop_
  _atom_site_type_symbol
  _atom_site_label
  _atom_site_symmetry_multiplicity
  _atom_site_fract_x
  _atom_site_fract_y
  _atom_site_fract_z
  _atom_site_occupancy
  C   C1        1.0  0.11942  0.96476  0.05824  1.0000
  C   C2        1.0  0.10371  0.99743  0.02224  1.0000
  N   N1        1.0  0.05572  0.99522  0.01600  1.0000
  C   C3        1.0  0.02665  0.01333  0.04652  1.0000
  O   O1        1.0  0.03930  0.03400  0.07934  1.0000
  N   N2        1.0  0.98331  0.00552  0.03441  1.0000
  C   C4        1.0  0.94395  0.01653  0.05772  1.0000
  C   C5        1.0  0.94322  0.03269  0.10121  1.0000
  C   C6        1.0  0.90244  0.04097  0.12163  1.0000
  C   C7        1.0  0.86389  0.03261  0.09774  1.0000
  N   N3        1.0  0.86327  0.01709  0.05547  1.0000
  C   C8        1.0  0.90291  0.00925  0.03553  1.0000
  N   N4        1.0  0.90432  0.99482  0.99047  1.0000
  C   C9        1.0  0.86580  0.96756  0.97701  1.0000
  C   C10       1.0  0.86106  0.97759  0.92745  1.0000
  C   C11       1.0  0.86993  0.02736  0.92619  1.0000
  C   C12       1.0  0.90759  0.03344  0.95994  1.0000
  C   C13       1.0  0.12644  0.99032  0.97754  1.0000
  C   C14       1.0  0.14032  0.02753  0.95272  1.0000
  C   C15       1.0  0.16057  0.02228  0.91114  1.0000
  C   C16       1.0  0.16696  0.97979  0.89361  1.0000
  C   C17       1.0  0.15294  0.94255  0.91753  1.0000
  C   C18       1.0  0.13266  0.94774  0.95912  1.0000
  H   H1        1.0  0.10565  0.97372  0.09084  1.0000
  H   H2        1.0  0.10868  0.93056  0.05131  1.0000
  H   H3        1.0  0.15582  0.96493  0.06111  1.0000
  H   H4        1.0  0.11179  0.03104  0.03427  1.0000
  H   H5        1.0  0.04406  0.97027  0.99676  1.0000
  H   H6        1.0  0.97731  0.99289  0.00368  1.0000
  H   H7        1.0  0.97363  0.03860  0.11986  1.0000
  H   H8        1.0  0.90089  0.05343  0.15552  1.0000
  H   H9        1.0  0.83131  0.03843  0.11244  1.0000
  H   H10       1.0  0.87230  0.93214  0.98289  1.0000
  H   H11       1.0  0.83463  0.97665  0.99379  1.0000
  H   H12       1.0  0.88648  0.95967  0.90824  1.0000
  H   H13       1.0  0.82821  0.96870  0.91441  1.0000
  H   H14       1.0  0.84025  0.04563  0.93723  1.0000
  H   H15       1.0  0.87892  0.03936  0.89296  1.0000
  H   H16       1.0  0.93990  0.03197  0.94295  1.0000
  H   H17       1.0  0.90496  0.06602  0.97636  1.0000
  H   H18       1.0  0.13530  0.06103  0.96572  1.0000
  H   H19       1.0  0.17127  0.05142  0.89245  1.0000
  H   H20       1.0  0.18273  0.97570  0.86125  1.0000
  H   H21       1.0  0.15775  0.90937  0.90376  1.0000
  H   H22       1.0  0.12177  0.91808  0.97686  1.0000
