data_image0
_chemical_formula_structural       C2NC15FCNH27
_chemical_formula_sum              "C18 N2 F1 H27"
_cell_length_a       30
_cell_length_b       30
_cell_length_c       30
_cell_angle_alpha    90
_cell_angle_beta     90
_cell_angle_gamma    90

_space_group_name_H-M_alt    "P 1"
_space_group_IT_number       1

loop_
  _space_group_symop_operation_xyz
  'x, y, z'

loop_
  _atom_site_type_symbol
  _atom_site_label
  _atom_site_symmetry_multiplicity
  _atom_site_fract_x
  _atom_site_fract_y
  _atom_site_fract_z
  _atom_site_occupancy
  C   C1        1.0  0.10465  0.09453  0.02964  1.0000
  C   C2        1.0  0.08666  0.05220  0.00739  1.0000
  N   N1        1.0  0.04955  0.03511  0.03461  1.0000
  C   C3        1.0  0.00579  0.03905  0.01365  1.0000
  C   C4        1.0  0.99724  0.00768  0.97369  1.0000
  C   C5        1.0  0.99831  0.95787  0.98540  1.0000
  C   C6        1.0  0.95774  0.94322  0.01221  1.0000
  C   C7        1.0  0.91363  0.95315  0.98786  1.0000
  C   C8        1.0  0.87408  0.94008  0.01814  1.0000
  C   C9        1.0  0.83310  0.96926  0.01060  1.0000
  C   C10       1.0  0.84310  0.01851  0.01936  1.0000
  C   C11       1.0  0.89075  0.03226  0.00694  1.0000
  C   C12       1.0  0.91007  0.00167  0.97082  1.0000
  C   C13       1.0  0.95335  0.01903  0.94958  1.0000
  C   C14       1.0  0.12359  0.01738  0.00199  1.0000
  C   C15       1.0  0.13059  0.99725  0.96044  1.0000
  C   C16       1.0  0.16351  0.96465  0.95657  1.0000
  C   C17       1.0  0.18819  0.95296  0.99405  1.0000
  F   F1        1.0  0.22013  0.92191  0.99136  1.0000
  C   C18       1.0  0.17926  0.97394  0.03418  1.0000
  N   N2        1.0  0.14736  0.00548  0.03904  1.0000
  H   H1        1.0  0.11654  0.08817  0.06364  1.0000
  H   H2        1.0  0.13264  0.10834  0.01059  1.0000
  H   H3        1.0  0.07862  0.12025  0.03151  1.0000
  H   H4        1.0  0.07524  0.06180  0.97400  1.0000
  H   H5        1.0  0.05618  0.00306  0.04416  1.0000
  H   H6        1.0  0.98146  0.03264  0.03994  1.0000
  H   H7        1.0  0.00047  0.07381  0.00359  1.0000
  H   H8        1.0  0.02387  0.01352  0.94935  1.0000
  H   H9        1.0  0.02881  0.94932  0.00369  1.0000
  H   H10       1.0  0.99942  0.93843  0.95432  1.0000
  H   H11       1.0  0.95826  0.95962  0.04501  1.0000
  H   H12       1.0  0.96013  0.90718  0.01865  1.0000
  H   H13       1.0  0.91253  0.93150  0.95821  1.0000
  H   H14       1.0  0.86548  0.90505  0.01216  1.0000
  H   H15       1.0  0.88355  0.94240  0.05343  1.0000
  H   H16       1.0  0.82141  0.96508  0.97618  1.0000
  H   H17       1.0  0.80568  0.95835  0.03213  1.0000
  H   H18       1.0  0.81909  0.03881  0.00060  1.0000
  H   H19       1.0  0.83756  0.02625  0.05468  1.0000
  H   H20       1.0  0.91123  0.03088  0.03715  1.0000
  H   H21       1.0  0.89067  0.06715  0.99594  1.0000
  H   H22       1.0  0.88545  0.00180  0.94353  1.0000
  H   H23       1.0  0.95106  0.05508  0.94370  1.0000
  H   H24       1.0  0.95544  0.00394  0.91621  1.0000
  H   H25       1.0  0.11063  0.00647  0.93147  1.0000
  H   H26       1.0  0.17002  0.94834  0.92484  1.0000
  H   H27       1.0  0.19792  0.96559  0.06420  1.0000
