data_image0
_chemical_formula_structural       C2NC5OCONC6FC6H29
_chemical_formula_sum              "C20 N2 O2 F1 H29"
_cell_length_a       30
_cell_length_b       30
_cell_length_c       30
_cell_angle_alpha    90
_cell_angle_beta     90
_cell_angle_gamma    90

_space_group_name_H-M_alt    "P 1"
_space_group_IT_number       1

loop_
  _space_group_symop_operation_xyz
  'x, y, z'

loop_
  _atom_site_type_symbol
  _atom_site_label
  _atom_site_symmetry_multiplicity
  _atom_site_fract_x
  _atom_site_fract_y
  _atom_site_fract_z
  _atom_site_occupancy
  C   C1        1.0  0.02694  0.04743  0.95539  1.0000
  C   C2        1.0  0.04341  0.99932  0.95432  1.0000
  N   N1        1.0  0.08712  0.99763  0.97709  1.0000
  C   C3        1.0  0.12430  0.99555  0.94527  1.0000
  C   C4        1.0  0.17078  0.99829  0.96696  1.0000
  C   C5        1.0  0.18083  0.96359  0.00262  1.0000
  C   C6        1.0  0.21582  0.98712  0.03005  1.0000
  C   C7        1.0  0.19897  0.03467  0.02954  1.0000
  O   O1        1.0  0.17822  0.04136  0.98702  1.0000
  C   C8        1.0  0.01102  0.96710  0.97860  1.0000
  O   O2        1.0  0.02397  0.94071  0.00728  1.0000
  N   N2        1.0  0.96748  0.96844  0.96411  1.0000
  C   C9        1.0  0.93211  0.94335  0.98582  1.0000
  C   C10       1.0  0.90764  0.97037  0.02258  1.0000
  C   C11       1.0  0.88846  0.01360  0.00221  1.0000
  C   C12       1.0  0.90525  0.05610  0.01274  1.0000
  C   C13       1.0  0.88780  0.09451  0.99291  1.0000
  C   C14       1.0  0.85353  0.09090  0.96212  1.0000
  F   F1        1.0  0.83695  0.12772  0.94309  1.0000
  C   C15       1.0  0.83642  0.04956  0.95064  1.0000
  C   C16       1.0  0.85385  0.01118  0.97044  1.0000
  C   C17       1.0  0.87027  0.94188  0.04407  1.0000
  C   C18       1.0  0.86172  0.96351  0.08937  1.0000
  C   C19       1.0  0.90581  0.98503  0.10288  1.0000
  C   C20       1.0  0.93772  0.97654  0.06408  1.0000
  H   H1        1.0  0.01941  0.05817  0.98949  1.0000
  H   H2        1.0  0.99650  0.05152  0.93568  1.0000
  H   H3        1.0  0.05178  0.07028  0.94144  1.0000
  H   H4        1.0  0.04584  0.98736  0.91985  1.0000
  H   H5        1.0  0.08729  0.96969  0.99679  1.0000
  H   H6        1.0  0.12129  0.02353  0.92192  1.0000
  H   H7        1.0  0.12212  0.96448  0.92615  1.0000
  H   H8        1.0  0.19570  0.99537  0.94032  1.0000
  H   H9        1.0  0.15190  0.95668  0.02375  1.0000
  H   H10       1.0  0.19234  0.93197  0.98860  1.0000
  H   H11       1.0  0.24818  0.98511  0.01318  1.0000
  H   H12       1.0  0.21954  0.97370  0.06371  1.0000
  H   H13       1.0  0.17364  0.04001  0.05530  1.0000
  H   H14       1.0  0.22565  0.05906  0.03419  1.0000
  H   H15       1.0  0.95797  0.99276  0.94278  1.0000
  H   H16       1.0  0.90889  0.93351  0.95938  1.0000
  H   H17       1.0  0.94611  0.91253  0.99962  1.0000
  H   H18       1.0  0.93225  0.06052  0.03646  1.0000
  H   H19       1.0  0.90088  0.12716  0.00141  1.0000
  H   H20       1.0  0.80968  0.04736  0.92637  1.0000
  H   H21       1.0  0.83999  0.97916  0.96052  1.0000
  H   H22       1.0  0.83959  0.93942  0.02453  1.0000
  H   H23       1.0  0.88208  0.90764  0.04949  1.0000
  H   H24       1.0  0.85047  0.93897  0.11392  1.0000
  H   H25       1.0  0.83571  0.98903  0.08668  1.0000
  H   H26       1.0  0.90114  0.02081  0.10845  1.0000
  H   H27       1.0  0.91880  0.97080  0.13387  1.0000
  H   H28       1.0  0.95579  0.94546  0.07106  1.0000
  H   H29       1.0  0.96308  0.00252  0.06107  1.0000
