data_image0
_chemical_formula_structural       C2NC2SC7ClC4ClH21
_chemical_formula_sum              "C15 N1 S1 Cl2 H21"
_cell_length_a       30
_cell_length_b       30
_cell_length_c       30
_cell_angle_alpha    90
_cell_angle_beta     90
_cell_angle_gamma    90

_space_group_name_H-M_alt    "P 1"
_space_group_IT_number       1

loop_
  _space_group_symop_operation_xyz
  'x, y, z'

loop_
  _atom_site_type_symbol
  _atom_site_label
  _atom_site_symmetry_multiplicity
  _atom_site_fract_x
  _atom_site_fract_y
  _atom_site_fract_z
  _atom_site_occupancy
  C   C1        1.0  0.90937  0.98274  0.06965  1.0000
  C   C2        1.0  0.93237  0.99887  0.02687  1.0000
  N   N1        1.0  0.96543  0.96751  0.00856  1.0000
  C   C3        1.0  0.00291  0.95648  0.03809  1.0000
  C   C4        1.0  0.03338  0.99614  0.04899  1.0000
  S   S1        1.0  0.08230  0.97764  0.08040  1.0000
  C   C5        1.0  0.12689  0.98608  0.03988  1.0000
  C   C6        1.0  0.12220  0.95942  0.99671  1.0000
  C   C7        1.0  0.15066  0.98572  0.96397  1.0000
  C   C8        1.0  0.13933  0.03385  0.97511  1.0000
  C   C9        1.0  0.13397  0.03479  0.02578  1.0000
  C   C10       1.0  0.89778  0.01176  0.99163  1.0000
  C   C11       1.0  0.88907  0.05706  0.98190  1.0000
  Cl  Cl1       1.0  0.91572  0.10070  0.00887  1.0000
  C   C12       1.0  0.85741  0.06955  0.94984  1.0000
  C   C13       1.0  0.83333  0.03742  0.92680  1.0000
  C   C14       1.0  0.84075  0.99265  0.93599  1.0000
  C   C15       1.0  0.87236  0.97986  0.96799  1.0000
  Cl  Cl2       1.0  0.87751  0.92288  0.97636  1.0000
  H   H1        1.0  0.88327  0.00614  0.07997  1.0000
  H   H2        1.0  0.93310  0.98036  0.09728  1.0000
  H   H3        1.0  0.89380  0.95000  0.06573  1.0000
  H   H4        1.0  0.95106  0.02872  0.03593  1.0000
  H   H5        1.0  0.94932  0.93853  0.00064  1.0000
  H   H6        1.0  0.99080  0.94064  0.06871  1.0000
  H   H7        1.0  0.02247  0.93097  0.02068  1.0000
  H   H8        1.0  0.04309  0.01370  0.01857  1.0000
  H   H9        1.0  0.01590  0.02006  0.07028  1.0000
  H   H10       1.0  0.15741  0.97493  0.05669  1.0000
  H   H11       1.0  0.08787  0.95841  0.98442  1.0000
  H   H12       1.0  0.13393  0.92507  0.00034  1.0000
  H   H13       1.0  0.14320  0.97739  0.92928  1.0000
  H   H14       1.0  0.18614  0.97931  0.96996  1.0000
  H   H15       1.0  0.16486  0.05715  0.96349  1.0000
  H   H16       1.0  0.10771  0.04311  0.95927  1.0000
  H   H17       1.0  0.10695  0.05737  0.03535  1.0000
  H   H18       1.0  0.16451  0.04765  0.04125  1.0000
  H   H19       1.0  0.85135  0.10462  0.94282  1.0000
  H   H20       1.0  0.80883  0.04720  0.90196  1.0000
  H   H21       1.0  0.82169  0.96753  0.91806  1.0000
