data_image0
_chemical_formula_structural       C2NC4SC9NC5H32
_chemical_formula_sum              "C20 N2 S1 H32"
_cell_length_a       30
_cell_length_b       30
_cell_length_c       30
_cell_angle_alpha    90
_cell_angle_beta     90
_cell_angle_gamma    90

_space_group_name_H-M_alt    "P 1"
_space_group_IT_number       1

loop_
  _space_group_symop_operation_xyz
  'x, y, z'

loop_
  _atom_site_type_symbol
  _atom_site_label
  _atom_site_symmetry_multiplicity
  _atom_site_fract_x
  _atom_site_fract_y
  _atom_site_fract_z
  _atom_site_occupancy
  C   C1        1.0  0.97459  0.94162  0.07495  1.0000
  C   C2        1.0  0.96576  0.96676  0.03134  1.0000
  N   N1        1.0  0.91909  0.96156  0.01712  1.0000
  C   C3        1.0  0.88744  0.99119  0.04055  1.0000
  C   C4        1.0  0.84115  0.96895  0.03822  1.0000
  C   C5        1.0  0.82149  0.96570  0.99127  1.0000
  C   C6        1.0  0.81617  0.01061  0.96829  1.0000
  S   S1        1.0  0.86863  0.04039  0.96286  1.0000
  C   C7        1.0  0.88716  0.03924  0.02119  1.0000
  C   C8        1.0  0.85953  0.07170  0.04915  1.0000
  C   C9        1.0  0.99686  0.95017  0.99481  1.0000
  C   C10       1.0  0.99484  0.90615  0.97911  1.0000
  C   C11       1.0  0.02366  0.89157  0.94567  1.0000
  C   C12       1.0  0.05474  0.92082  0.92728  1.0000
  C   C13       1.0  0.05717  0.96505  0.94199  1.0000
  C   C14       1.0  0.09057  0.99695  0.92189  1.0000
  C   C15       1.0  0.13301  0.00322  0.95018  1.0000
  N   N2        1.0  0.12616  0.03001  0.99094  1.0000
  C   C16       1.0  0.16466  0.02671  0.02116  1.0000
  C   C17       1.0  0.19822  0.06074  0.00440  1.0000
  C   C18       1.0  0.17031  0.09589  0.98075  1.0000
  C   C19       1.0  0.12277  0.07803  0.98159  1.0000
  C   C20       1.0  0.02818  0.97931  0.97579  1.0000
  H   H1        1.0  0.95537  0.95563  0.10262  1.0000
  H   H2        1.0  0.00990  0.94364  0.08412  1.0000
  H   H3        1.0  0.96597  0.90622  0.07236  1.0000
  H   H4        1.0  0.97317  0.00208  0.03707  1.0000
  H   H5        1.0  0.91751  0.96920  0.98385  1.0000
  H   H6        1.0  0.89637  0.99297  0.07596  1.0000
  H   H7        1.0  0.84319  0.93523  0.05234  1.0000
  H   H8        1.0  0.81778  0.98710  0.05970  1.0000
  H   H9        1.0  0.84181  0.94343  0.97057  1.0000
  H   H10       1.0  0.78860  0.94989  0.99359  1.0000
  H   H11       1.0  0.79232  0.03159  0.98625  1.0000
  H   H12       1.0  0.80268  0.00562  0.93475  1.0000
  H   H13       1.0  0.92129  0.05221  0.02096  1.0000
  H   H14       1.0  0.82419  0.06283  0.05059  1.0000
  H   H15       1.0  0.86200  0.10570  0.03600  1.0000
  H   H16       1.0  0.87199  0.07250  0.08349  1.0000
  H   H17       1.0  0.97047  0.88310  0.99289  1.0000
  H   H18       1.0  0.02175  0.85737  0.93388  1.0000
  H   H19       1.0  0.07692  0.90888  0.90122  1.0000
  H   H20       1.0  0.10060  0.98417  0.88908  1.0000
  H   H21       1.0  0.07413  0.02884  0.91498  1.0000
  H   H22       1.0  0.15892  0.01817  0.92912  1.0000
  H   H23       1.0  0.14513  0.96996  0.95949  1.0000
  H   H24       1.0  0.15376  0.03585  0.05486  1.0000
  H   H25       1.0  0.17870  0.99309  0.02347  1.0000
  H   H26       1.0  0.22147  0.04538  0.98075  1.0000
  H   H27       1.0  0.21781  0.07502  0.03166  1.0000
  H   H28       1.0  0.17254  0.12822  0.99753  1.0000
  H   H29       1.0  0.18212  0.10020  0.94645  1.0000
  H   H30       1.0  0.10453  0.08618  0.95109  1.0000
  H   H31       1.0  0.10446  0.09377  0.00908  1.0000
  H   H32       1.0  0.03037  0.01360  0.98749  1.0000
