data_image0
_chemical_formula_structural       C2NSO2C4ClC2OC4OH12
_chemical_formula_sum              "C12 N1 S1 O4 Cl1 H12"
_cell_length_a       30
_cell_length_b       30
_cell_length_c       30
_cell_angle_alpha    90
_cell_angle_beta     90
_cell_angle_gamma    90

_space_group_name_H-M_alt    "P 1"
_space_group_IT_number       1

loop_
  _space_group_symop_operation_xyz
  'x, y, z'

loop_
  _atom_site_type_symbol
  _atom_site_label
  _atom_site_symmetry_multiplicity
  _atom_site_fract_x
  _atom_site_fract_y
  _atom_site_fract_z
  _atom_site_occupancy
  C   C1        1.0  0.97136  0.95125  0.05059  1.0000
  C   C2        1.0  0.96190  0.98836  0.01710  1.0000
  N   N1        1.0  0.98374  0.02945  0.03320  1.0000
  S   S1        1.0  0.00864  0.06155  0.99407  1.0000
  O   O1        1.0  0.97825  0.06360  0.95659  1.0000
  O   O2        1.0  0.02111  0.10199  0.01738  1.0000
  C   C3        1.0  0.05738  0.03197  0.97862  1.0000
  C   C4        1.0  0.08844  0.02755  0.01079  1.0000
  C   C5        1.0  0.13192  0.00722  0.00702  1.0000
  C   C6        1.0  0.14475  0.97689  0.97686  1.0000
  Cl  Cl1       1.0  0.19853  0.95552  0.98042  1.0000
  C   C7        1.0  0.11743  0.95889  0.94168  1.0000
  C   C8        1.0  0.08084  0.97750  0.92416  1.0000
  O   O3        1.0  0.05994  0.01648  0.93529  1.0000
  C   C9        1.0  0.91307  0.99690  0.01303  1.0000
  C   C10       1.0  0.88313  0.99282  0.97836  1.0000
  C   C11       1.0  0.84132  0.00688  0.99512  1.0000
  C   C12       1.0  0.84838  0.01883  0.03879  1.0000
  O   O4        1.0  0.89183  0.01304  0.04999  1.0000
  H   H1        1.0  0.95518  0.92010  0.04053  1.0000
  H   H2        1.0  0.95935  0.95975  0.08404  1.0000
  H   H3        1.0  0.00727  0.94506  0.05312  1.0000
  H   H4        1.0  0.97558  0.97795  0.98487  1.0000
  H   H5        1.0  0.96263  0.04852  0.05205  1.0000
  H   H6        1.0  0.08201  0.04204  0.04353  1.0000
  H   H7        1.0  0.15559  0.01777  0.03247  1.0000
  H   H8        1.0  0.12893  0.92774  0.92707  1.0000
  H   H9        1.0  0.06374  0.96269  0.89594  1.0000
  H   H10       1.0  0.89071  0.98160  0.94496  1.0000
  H   H11       1.0  0.80995  0.00848  0.97745  1.0000
  H   H12       1.0  0.82709  0.03160  0.06492  1.0000
