data_image0
_chemical_formula_structural       C2NCFC3NCONC11N2COC6H28
_chemical_formula_sum              "C25 N5 F1 O2 H28"
_cell_length_a       30
_cell_length_b       30
_cell_length_c       30
_cell_angle_alpha    90
_cell_angle_beta     90
_cell_angle_gamma    90

_space_group_name_H-M_alt    "P 1"
_space_group_IT_number       1

loop_
  _space_group_symop_operation_xyz
  'x, y, z'

loop_
  _atom_site_type_symbol
  _atom_site_label
  _atom_site_symmetry_multiplicity
  _atom_site_fract_x
  _atom_site_fract_y
  _atom_site_fract_z
  _atom_site_occupancy
  C   C1        1.0  0.82931  0.17388  0.00142  1.0000
  C   C2        1.0  0.84291  0.13636  0.96991  1.0000
  N   N1        1.0  0.80977  0.13239  0.93425  1.0000
  C   C3        1.0  0.84755  0.09307  0.99512  1.0000
  F   F1        1.0  0.81027  0.07556  0.01371  1.0000
  C   C4        1.0  0.88624  0.07098  0.99966  1.0000
  C   C5        1.0  0.89021  0.02949  0.02414  1.0000
  C   C6        1.0  0.92681  0.00397  0.02898  1.0000
  N   N2        1.0  0.96780  0.01384  0.01064  1.0000
  C   C7        1.0  0.00737  0.99198  0.01885  1.0000
  O   O1        1.0  0.01287  0.96098  0.04470  1.0000
  N   N3        1.0  0.04124  0.00969  0.99306  1.0000
  C   C8        1.0  0.08545  0.98957  0.99573  1.0000
  C   C9        1.0  0.12349  0.01664  0.97276  1.0000
  C   C10       1.0  0.11227  0.02199  0.92271  1.0000
  C   C11       1.0  0.12585  0.06319  0.99474  1.0000
  C   C12       1.0  0.16956  0.99377  0.97693  1.0000
  C   C13       1.0  0.20767  0.01389  0.95812  1.0000
  C   C14       1.0  0.24974  0.99409  0.96101  1.0000
  C   C15       1.0  0.25487  0.95360  0.98293  1.0000
  C   C16       1.0  0.21794  0.93306  0.00196  1.0000
  C   C17       1.0  0.17580  0.95290  0.99903  1.0000
  C   C18       1.0  0.91981  0.96299  0.05691  1.0000
  N   N4        1.0  0.91276  0.96787  0.09956  1.0000
  N   N5        1.0  0.90679  0.93060  0.12470  1.0000
  C   C19       1.0  0.90808  0.88742  0.10962  1.0000
  O   O2        1.0  0.90335  0.85536  0.13457  1.0000
  C   C20       1.0  0.91445  0.88149  0.06133  1.0000
  C   C21       1.0  0.91411  0.83864  0.04275  1.0000
  C   C22       1.0  0.91896  0.83329  0.99683  1.0000
  C   C23       1.0  0.92392  0.87060  0.96958  1.0000
  C   C24       1.0  0.92428  0.91335  0.98816  1.0000
  C   C25       1.0  0.91990  0.91891  0.03437  1.0000
  H   H1        1.0  0.85415  0.17836  0.02779  1.0000
  H   H2        1.0  0.82649  0.20557  0.98348  1.0000
  H   H3        1.0  0.79720  0.16718  0.01750  1.0000
  H   H4        1.0  0.87476  0.14537  0.95442  1.0000
  H   H5        1.0  0.81726  0.10561  0.91479  1.0000
  H   H6        1.0  0.77946  0.12552  0.94817  1.0000
  H   H7        1.0  0.91589  0.08503  0.98452  1.0000
  H   H8        1.0  0.85959  0.01850  0.04053  1.0000
  H   H9        1.0  0.97121  0.04351  0.99533  1.0000
  H   H10       1.0  0.03103  0.01870  0.96232  1.0000
  H   H11       1.0  0.08247  0.95628  0.98077  1.0000
  H   H12       1.0  0.09304  0.98499  0.03125  1.0000
  H   H13       1.0  0.13776  0.04097  0.90471  1.0000
  H   H14       1.0  0.10949  0.98940  0.90641  1.0000
  H   H15       1.0  0.08088  0.03984  0.91761  1.0000
  H   H16       1.0  0.09387  0.08072  0.99265  1.0000
  H   H17       1.0  0.15059  0.08478  0.97876  1.0000
  H   H18       1.0  0.13484  0.06054  0.03004  1.0000
  H   H19       1.0  0.20518  0.04563  0.94075  1.0000
  H   H20       1.0  0.27848  0.01040  0.94614  1.0000
  H   H21       1.0  0.28751  0.93815  0.98526  1.0000
  H   H22       1.0  0.22178  0.90143  0.01927  1.0000
  H   H23       1.0  0.14836  0.93517  0.01472  1.0000
  H   H24       1.0  0.90286  0.93533  0.15797  1.0000
  H   H25       1.0  0.90998  0.80955  0.06403  1.0000
  H   H26       1.0  0.91873  0.80004  0.98237  1.0000
  H   H27       1.0  0.92761  0.86638  0.93375  1.0000
  H   H28       1.0  0.92813  0.94165  0.96596  1.0000
