data_image0
_chemical_formula_structural       C2NCOC3NC2OC2NC12NCOC5OH36
_chemical_formula_sum              "C28 N4 O4 H36"
_cell_length_a       30
_cell_length_b       30
_cell_length_c       30
_cell_angle_alpha    90
_cell_angle_beta     90
_cell_angle_gamma    90

_space_group_name_H-M_alt    "P 1"
_space_group_IT_number       1

loop_
  _space_group_symop_operation_xyz
  'x, y, z'

loop_
  _atom_site_type_symbol
  _atom_site_label
  _atom_site_symmetry_multiplicity
  _atom_site_fract_x
  _atom_site_fract_y
  _atom_site_fract_z
  _atom_site_occupancy
  C   C1        1.0  0.09441  0.96586  0.09102  1.0000
  C   C2        1.0  0.09877  0.00338  0.05684  1.0000
  N   N1        1.0  0.06014  0.00593  0.02867  1.0000
  C   C3        1.0  0.02086  0.02377  0.04340  1.0000
  O   O1        1.0  0.01379  0.03851  0.08074  1.0000
  C   C4        1.0  0.98637  0.02458  0.00844  1.0000
  C   C5        1.0  0.97805  0.06308  0.98723  1.0000
  C   C6        1.0  0.94320  0.06744  0.95164  1.0000
  N   N2        1.0  0.91395  0.10524  0.95997  1.0000
  C   C7        1.0  0.89081  0.12229  0.92017  1.0000
  C   C8        1.0  0.86649  0.16620  0.93048  1.0000
  O   O2        1.0  0.83571  0.16087  0.96666  1.0000
  C   C9        1.0  0.85877  0.14615  0.00588  1.0000
  C   C10       1.0  0.88279  0.10163  0.99763  1.0000
  N   N3        1.0  0.91917  0.02667  0.94129  1.0000
  C   C11       1.0  0.91457  0.99504  0.97866  1.0000
  C   C12       1.0  0.89059  0.95230  0.96434  1.0000
  C   C13       1.0  0.89837  0.93544  0.92111  1.0000
  C   C14       1.0  0.87753  0.89685  0.90619  1.0000
  C   C15       1.0  0.84869  0.87401  0.93434  1.0000
  C   C16       1.0  0.84064  0.88905  0.97785  1.0000
  C   C17       1.0  0.81167  0.86481  0.00558  1.0000
  C   C18       1.0  0.80322  0.87837  0.04914  1.0000
  C   C19       1.0  0.82381  0.91634  0.06562  1.0000
  C   C20       1.0  0.85265  0.94085  0.03843  1.0000
  C   C21       1.0  0.86176  0.92832  0.99378  1.0000
  C   C22       1.0  0.95996  0.98326  0.99982  1.0000
  N   N4        1.0  0.13678  0.99650  0.02852  1.0000
  C   C23       1.0  0.17953  0.00523  0.04338  1.0000
  O   O3        1.0  0.18780  0.02349  0.07899  1.0000
  C   C24       1.0  0.21559  0.99100  0.00932  1.0000
  C   C25       1.0  0.21829  0.02613  0.97263  1.0000
  C   C26       1.0  0.26075  0.98264  0.03123  1.0000
  C   C27       1.0  0.25856  0.93351  0.04198  1.0000
  C   C28       1.0  0.23320  0.91535  0.00245  1.0000
  O   O4        1.0  0.20192  0.94917  0.98940  1.0000
  H   H1        1.0  0.12402  0.96387  0.11229  1.0000
  H   H2        1.0  0.06545  0.97089  0.11264  1.0000
  H   H3        1.0  0.09043  0.93349  0.07454  1.0000
  H   H4        1.0  0.10260  0.03518  0.07443  1.0000
  H   H5        1.0  0.06312  0.99664  0.99647  1.0000
  H   H6        1.0  0.99712  0.09285  0.99516  1.0000
  H   H7        1.0  0.96238  0.07539  0.92146  1.0000
  H   H8        1.0  0.86616  0.09795  0.90840  1.0000
  H   H9        1.0  0.91453  0.12823  0.89298  1.0000
  H   H10       1.0  0.89014  0.19294  0.93854  1.0000
  H   H11       1.0  0.84734  0.17679  0.90126  1.0000
  H   H12       1.0  0.83389  0.14194  0.03223  1.0000
  H   H13       1.0  0.88201  0.17210  0.01681  1.0000
  H   H14       1.0  0.85742  0.07632  0.99046  1.0000
  H   H15       1.0  0.90019  0.09214  0.02826  1.0000
  H   H16       1.0  0.88840  0.03453  0.92968  1.0000
  H   H17       1.0  0.89395  0.01166  0.00373  1.0000
  H   H18       1.0  0.92101  0.95270  0.89857  1.0000
  H   H19       1.0  0.88375  0.88463  0.87267  1.0000
  H   H20       1.0  0.83262  0.84393  0.92203  1.0000
  H   H21       1.0  0.79542  0.83479  0.99331  1.0000
  H   H22       1.0  0.78073  0.85923  0.07010  1.0000
  H   H23       1.0  0.81758  0.92704  0.09967  1.0000
  H   H24       1.0  0.86805  0.97007  0.05329  1.0000
  H   H25       1.0  0.95449  0.96522  0.03117  1.0000
  H   H26       1.0  0.97933  0.96116  0.97799  1.0000
  H   H27       1.0  0.13528  0.97218  0.00514  1.0000
  H   H28       1.0  0.18602  0.03056  0.95611  1.0000
  H   H29       1.0  0.24184  0.01604  0.94657  1.0000
  H   H30       1.0  0.22871  0.05848  0.98596  1.0000
  H   H31       1.0  0.26727  0.00313  0.06069  1.0000
  H   H32       1.0  0.28802  0.98853  0.00754  1.0000
  H   H33       1.0  0.29128  0.91803  0.04617  1.0000
  H   H34       1.0  0.23939  0.92829  0.07267  1.0000
  H   H35       1.0  0.21541  0.88447  0.01003  1.0000
  H   H36       1.0  0.25545  0.90933  0.97410  1.0000
