data_image0
_chemical_formula_structural       C2NCONC6OC4NCNCNC2H19
_chemical_formula_sum              "C17 N5 O2 H19"
_cell_length_a       30
_cell_length_b       30
_cell_length_c       30
_cell_angle_alpha    90
_cell_angle_beta     90
_cell_angle_gamma    90

_space_group_name_H-M_alt    "P 1"
_space_group_IT_number       1

loop_
  _space_group_symop_operation_xyz
  'x, y, z'

loop_
  _atom_site_type_symbol
  _atom_site_label
  _atom_site_symmetry_multiplicity
  _atom_site_fract_x
  _atom_site_fract_y
  _atom_site_fract_z
  _atom_site_occupancy
  C   C1        1.0  0.98275  0.89633  0.95013  1.0000
  C   C2        1.0  0.00147  0.94379  0.95236  1.0000
  N   N1        1.0  0.03381  0.94879  0.98817  1.0000
  C   C3        1.0  0.07587  0.93129  0.98436  1.0000
  O   O1        1.0  0.08741  0.90892  0.95208  1.0000
  N   N2        1.0  0.10400  0.94073  0.01974  1.0000
  C   C4        1.0  0.15020  0.92654  0.01713  1.0000
  C   C5        1.0  0.08916  0.95929  0.06225  1.0000
  C   C6        1.0  0.08902  0.00879  0.05978  1.0000
  C   C7        1.0  0.12038  0.04120  0.06877  1.0000
  C   C8        1.0  0.09980  0.08262  0.05930  1.0000
  C   C9        1.0  0.05730  0.07290  0.04519  1.0000
  O   O2        1.0  0.05037  0.02820  0.04548  1.0000
  C   C10       1.0  0.96425  0.97773  0.95831  1.0000
  C   C11       1.0  0.95665  0.01011  0.92551  1.0000
  C   C12       1.0  0.92302  0.04191  0.93083  1.0000
  C   C13       1.0  0.89638  0.04191  0.96922  1.0000
  N   N3        1.0  0.86251  0.07457  0.97398  1.0000
  C   C14       1.0  0.83281  0.08055  0.00837  1.0000
  N   N4        1.0  0.80665  0.11477  0.00043  1.0000
  C   C15       1.0  0.82141  0.12930  0.96008  1.0000
  N   N5        1.0  0.85513  0.10629  0.94256  1.0000
  C   C16       1.0  0.90375  0.00976  0.00224  1.0000
  C   C17       1.0  0.93748  0.97804  0.99671  1.0000
  H   H1        1.0  0.95741  0.89350  0.92398  1.0000
  H   H2        1.0  0.00900  0.87207  0.94280  1.0000
  H   H3        1.0  0.96743  0.88630  0.98174  1.0000
  H   H4        1.0  0.01891  0.95060  0.92093  1.0000
  H   H5        1.0  0.03366  0.97921  0.00282  1.0000
  H   H6        1.0  0.15469  0.89750  0.03873  1.0000
  H   H7        1.0  0.17175  0.95365  0.02852  1.0000
  H   H8        1.0  0.15983  0.91756  0.98314  1.0000
  H   H9        1.0  0.11137  0.94778  0.08887  1.0000
  H   H10       1.0  0.05571  0.94686  0.07008  1.0000
  H   H11       1.0  0.15401  0.03560  0.08043  1.0000
  H   H12       1.0  0.11420  0.11552  0.06220  1.0000
  H   H13       1.0  0.02939  0.09295  0.03427  1.0000
  H   H14       1.0  0.97697  0.01095  0.89546  1.0000
  H   H15       1.0  0.91807  0.06655  0.90462  1.0000
  H   H16       1.0  0.83158  0.05968  0.03765  1.0000
  H   H17       1.0  0.80713  0.15762  0.94285  1.0000
  H   H18       1.0  0.88421  0.00830  0.03267  1.0000
  H   H19       1.0  0.94307  0.95347  0.02285  1.0000
