data_image0
_chemical_formula_structural       C2NC4NC14F3H29
_chemical_formula_sum              "C20 N2 F3 H29"
_cell_length_a       30
_cell_length_b       30
_cell_length_c       30
_cell_angle_alpha    90
_cell_angle_beta     90
_cell_angle_gamma    90

_space_group_name_H-M_alt    "P 1"
_space_group_IT_number       1

loop_
  _space_group_symop_operation_xyz
  'x, y, z'

loop_
  _atom_site_type_symbol
  _atom_site_label
  _atom_site_symmetry_multiplicity
  _atom_site_fract_x
  _atom_site_fract_y
  _atom_site_fract_z
  _atom_site_occupancy
  C   C1        1.0  0.88517  0.94920  0.08163  1.0000
  C   C2        1.0  0.91106  0.97164  0.04357  1.0000
  N   N1        1.0  0.93441  0.93831  0.01675  1.0000
  C   C3        1.0  0.97902  0.94976  0.99991  1.0000
  C   C4        1.0  0.01418  0.94906  0.03742  1.0000
  C   C5        1.0  0.05803  0.96921  0.02131  1.0000
  C   C6        1.0  0.05330  0.01877  0.00855  1.0000
  N   N2        1.0  0.08420  0.03086  0.97233  1.0000
  C   C7        1.0  0.13083  0.03470  0.98607  1.0000
  C   C8        1.0  0.15719  0.99110  0.98507  1.0000
  C   C9        1.0  0.20598  0.00530  0.98099  1.0000
  C   C10       1.0  0.20549  0.05354  0.96472  1.0000
  C   C11       1.0  0.15712  0.06319  0.95282  1.0000
  C   C12       1.0  0.00504  0.03038  0.99465  1.0000
  C   C13       1.0  0.98208  0.99189  0.97065  1.0000
  C   C14       1.0  0.87960  0.00095  0.01641  1.0000
  C   C15       1.0  0.87703  0.04633  0.02886  1.0000
  C   C16       1.0  0.84942  0.07626  0.00647  1.0000
  C   C17       1.0  0.82360  0.06158  0.97106  1.0000
  C   C18       1.0  0.82531  0.01694  0.95828  1.0000
  C   C19       1.0  0.85272  0.98579  0.98064  1.0000
  C   C20       1.0  0.85229  0.93809  0.96357  1.0000
  F   F1        1.0  0.85100  0.90622  0.99589  1.0000
  F   F2        1.0  0.81521  0.92950  0.93820  1.0000
  F   F3        1.0  0.88717  0.92818  0.93626  1.0000
  H   H1        1.0  0.90759  0.92949  0.10271  1.0000
  H   H2        1.0  0.86932  0.97422  0.10304  1.0000
  H   H3        1.0  0.85881  0.92708  0.06958  1.0000
  H   H4        1.0  0.93561  0.99313  0.05997  1.0000
  H   H5        1.0  0.93644  0.90896  0.03379  1.0000
  H   H6        1.0  0.98739  0.92202  0.97750  1.0000
  H   H7        1.0  0.00302  0.96746  0.06695  1.0000
  H   H8        1.0  0.01976  0.91459  0.04827  1.0000
  H   H9        1.0  0.08323  0.96573  0.04753  1.0000
  H   H10       1.0  0.06975  0.94952  0.99277  1.0000
  H   H11       1.0  0.06072  0.03952  0.03777  1.0000
  H   H12       1.0  0.07445  0.06074  0.95928  1.0000
  H   H13       1.0  0.13351  0.05038  0.01905  1.0000
  H   H14       1.0  0.14799  0.97099  0.95593  1.0000
  H   H15       1.0  0.15199  0.97061  0.01474  1.0000
  H   H16       1.0  0.22381  0.98354  0.95771  1.0000
  H   H17       1.0  0.22298  0.00303  0.01324  1.0000
  H   H18       1.0  0.21646  0.07570  0.99164  1.0000
  H   H19       1.0  0.22783  0.05874  0.93635  1.0000
  H   H20       1.0  0.14923  0.09872  0.95548  1.0000
  H   H21       1.0  0.15057  0.05271  0.91839  1.0000
  H   H22       1.0  0.00419  0.06031  0.97365  1.0000
  H   H23       1.0  0.98600  0.03918  0.02458  1.0000
  H   H24       1.0  0.94939  0.00227  0.95831  1.0000
  H   H25       1.0  0.00128  0.98382  0.94052  1.0000
  H   H26       1.0  0.89703  0.05881  0.05647  1.0000
  H   H27       1.0  0.84823  0.11101  0.01667  1.0000
  H   H28       1.0  0.80214  0.08475  0.95330  1.0000
  H   H29       1.0  0.80480  0.00623  0.93026  1.0000
