data_image0
_chemical_formula_structural       C2OC3NC2O2C6H19
_chemical_formula_sum              "C13 O3 N1 H19"
_cell_length_a       30
_cell_length_b       30
_cell_length_c       30
_cell_angle_alpha    90
_cell_angle_beta     90
_cell_angle_gamma    90

_space_group_name_H-M_alt    "P 1"
_space_group_IT_number       1

loop_
  _space_group_symop_operation_xyz
  'x, y, z'

loop_
  _atom_site_type_symbol
  _atom_site_label
  _atom_site_symmetry_multiplicity
  _atom_site_fract_x
  _atom_site_fract_y
  _atom_site_fract_z
  _atom_site_occupancy
  C   C1        1.0  0.86483  0.02226  0.02540  1.0000
  C   C2        1.0  0.91252  0.02683  0.00839  1.0000
  O   O1        1.0  0.91074  0.04865  0.96625  1.0000
  C   C3        1.0  0.93785  0.98183  0.00531  1.0000
  C   C4        1.0  0.91256  0.94825  0.97572  1.0000
  C   C5        1.0  0.98742  0.98583  0.98903  1.0000
  N   N1        1.0  0.98995  0.00729  0.94480  1.0000
  C   C6        1.0  0.01995  0.00486  0.02512  1.0000
  C   C7        1.0  0.01283  0.05302  0.03893  1.0000
  O   O2        1.0  0.00576  0.06549  0.07712  1.0000
  O   O3        1.0  0.01476  0.08322  0.00587  1.0000
  C   C8        1.0  0.06876  0.99384  0.01517  1.0000
  C   C9        1.0  0.09513  0.01995  0.98669  1.0000
  C   C10       1.0  0.13936  0.00838  0.97787  1.0000
  C   C11       1.0  0.15788  0.97050  0.99724  1.0000
  C   C12       1.0  0.13219  0.94409  0.02544  1.0000
  C   C13       1.0  0.08796  0.95560  0.03429  1.0000
  H   H1        1.0  0.84332  0.00561  0.00108  1.0000
  H   H2        1.0  0.86363  0.00407  0.05698  1.0000
  H   H3        1.0  0.85027  0.05536  0.03067  1.0000
  H   H4        1.0  0.92971  0.04917  0.03137  1.0000
  H   H5        1.0  0.94073  0.04592  0.95325  1.0000
  H   H6        1.0  0.93862  0.96731  0.03892  1.0000
  H   H7        1.0  0.88055  0.93916  0.99067  1.0000
  H   H8        1.0  0.93153  0.91727  0.97201  1.0000
  H   H9        1.0  0.90599  0.96157  0.94240  1.0000
  H   H10       1.0  0.99879  0.95141  0.98346  1.0000
  H   H11       1.0  0.02257  0.00863  0.93498  1.0000
  H   H12       1.0  0.97482  0.98726  0.92172  1.0000
  H   H13       1.0  0.01190  0.98640  0.05583  1.0000
  H   H14       1.0  0.00849  0.11175  0.02050  1.0000
  H   H15       1.0  0.08172  0.04971  0.97088  1.0000
  H   H16       1.0  0.15938  0.02907  0.95585  1.0000
  H   H17       1.0  0.19232  0.96160  0.99040  1.0000
  H   H18       1.0  0.14659  0.91451  0.04062  1.0000
  H   H19       1.0  0.06863  0.93435  0.05645  1.0000
