data_image0
_chemical_formula_structural       C2OCOCN2C7FN2C5NC2OCOCH18
_chemical_formula_sum              "C20 O4 N5 F1 H18"
_cell_length_a       30
_cell_length_b       30
_cell_length_c       30
_cell_angle_alpha    90
_cell_angle_beta     90
_cell_angle_gamma    90

_space_group_name_H-M_alt    "P 1"
_space_group_IT_number       1

loop_
  _space_group_symop_operation_xyz
  'x, y, z'

loop_
  _atom_site_type_symbol
  _atom_site_label
  _atom_site_symmetry_multiplicity
  _atom_site_fract_x
  _atom_site_fract_y
  _atom_site_fract_z
  _atom_site_occupancy
  C   C1        1.0  0.06131  0.11299  0.98650  1.0000
  C   C2        1.0  0.05012  0.06894  0.96349  1.0000
  O   O1        1.0  0.01170  0.05051  0.98531  1.0000
  C   C3        1.0  0.98545  0.02333  0.95978  1.0000
  O   O2        1.0  0.99233  0.01568  0.92015  1.0000
  C   C4        1.0  0.94800  0.00488  0.98516  1.0000
  N   N1        1.0  0.91712  0.97678  0.96829  1.0000
  N   N2        1.0  0.89090  0.97103  0.00427  1.0000
  C   C5        1.0  0.85244  0.94170  0.00416  1.0000
  C   C6        1.0  0.81038  0.96661  0.99306  1.0000
  C   C7        1.0  0.78878  0.99319  0.02492  1.0000
  C   C8        1.0  0.75006  0.01656  0.01376  1.0000
  C   C9        1.0  0.73257  0.01369  0.97077  1.0000
  C   C10       1.0  0.75381  0.98745  0.93888  1.0000
  C   C11       1.0  0.79237  0.96427  0.95019  1.0000
  F   F1        1.0  0.81215  0.93900  0.91912  1.0000
  N   N3        1.0  0.90396  0.99252  0.04138  1.0000
  N   N4        1.0  0.94029  0.01460  0.02944  1.0000
  C   C12       1.0  0.08845  0.03603  0.96600  1.0000
  C   C13       1.0  0.10746  0.01957  0.92674  1.0000
  C   C14       1.0  0.14241  0.98917  0.92873  1.0000
  C   C15       1.0  0.15868  0.97484  0.96996  1.0000
  C   C16       1.0  0.14029  0.99036  0.01008  1.0000
  N   N5        1.0  0.15737  0.97546  0.05166  1.0000
  C   C17       1.0  0.19321  0.94422  0.05546  1.0000
  C   C18       1.0  0.20448  0.94571  0.10433  1.0000
  O   O3        1.0  0.16523  0.96213  0.12540  1.0000
  C   C19       1.0  0.14004  0.98370  0.09380  1.0000
  O   O4        1.0  0.10748  0.00571  0.10427  1.0000
  C   C20       1.0  0.10502  0.02093  0.00730  1.0000
  H   H1        1.0  0.09130  0.12821  0.97234  1.0000
  H   H2        1.0  0.06633  0.10871  0.02242  1.0000
  H   H3        1.0  0.03354  0.13643  0.98279  1.0000
  H   H4        1.0  0.04227  0.07690  0.92865  1.0000
  H   H5        1.0  0.84990  0.92636  0.03724  1.0000
  H   H6        1.0  0.85904  0.91476  0.98040  1.0000
  H   H7        1.0  0.80209  0.99617  0.05857  1.0000
  H   H8        1.0  0.73362  0.03720  0.03863  1.0000
  H   H9        1.0  0.70250  0.03199  0.96214  1.0000
  H   H10       1.0  0.74065  0.98496  0.90526  1.0000
  H   H11       1.0  0.09484  0.02998  0.89436  1.0000
  H   H12       1.0  0.15691  0.97636  0.89809  1.0000
  H   H13       1.0  0.18579  0.95089  0.96952  1.0000
  H   H14       1.0  0.18098  0.91117  0.04586  1.0000
  H   H15       1.0  0.22207  0.95328  0.03508  1.0000
  H   H16       1.0  0.21312  0.91283  0.11752  1.0000
  H   H17       1.0  0.23185  0.96881  0.11144  1.0000
  H   H18       1.0  0.08935  0.03387  0.03728  1.0000
