data_image0
_chemical_formula_structural       C2ONCOC8O2C5NH18
_chemical_formula_sum              "C16 O4 N2 H18"
_cell_length_a       30
_cell_length_b       30
_cell_length_c       30
_cell_angle_alpha    90
_cell_angle_beta     90
_cell_angle_gamma    90

_space_group_name_H-M_alt    "P 1"
_space_group_IT_number       1

loop_
  _space_group_symop_operation_xyz
  'x, y, z'

loop_
  _atom_site_type_symbol
  _atom_site_label
  _atom_site_symmetry_multiplicity
  _atom_site_fract_x
  _atom_site_fract_y
  _atom_site_fract_z
  _atom_site_occupancy
  C   C1        1.0  0.07221  0.01106  0.93714  1.0000
  C   C2        1.0  0.06607  0.02926  0.98443  1.0000
  O   O1        1.0  0.06633  0.07654  0.98322  1.0000
  N   N1        1.0  0.02382  0.01584  0.00356  1.0000
  C   C3        1.0  0.98292  0.02818  0.98771  1.0000
  O   O2        1.0  0.97878  0.05650  0.95847  1.0000
  C   C4        1.0  0.94412  0.00470  0.01016  1.0000
  C   C5        1.0  0.94348  0.95449  0.99776  1.0000
  C   C6        1.0  0.91022  0.93197  0.02817  1.0000
  C   C7        1.0  0.86956  0.94561  0.01556  1.0000
  C   C8        1.0  0.87568  0.97730  0.97674  1.0000
  C   C9        1.0  0.91575  0.95454  0.95477  1.0000
  C   C10       1.0  0.89765  0.02110  0.99298  1.0000
  C   C11       1.0  0.87127  0.04489  0.02840  1.0000
  O   O3        1.0  0.88565  0.06142  0.06265  1.0000
  O   O4        1.0  0.82782  0.04923  0.01782  1.0000
  C   C12       1.0  0.10397  0.01180  0.01412  1.0000
  C   C13       1.0  0.14442  0.03456  0.01715  1.0000
  C   C14       1.0  0.17806  0.01725  0.04402  1.0000
  C   C15       1.0  0.17070  0.97778  0.06709  1.0000
  C   C16       1.0  0.12976  0.95702  0.06239  1.0000
  N   N2        1.0  0.09637  0.97284  0.03660  1.0000
  H   H1        1.0  0.04666  0.02380  0.91439  1.0000
  H   H2        1.0  0.07069  0.97457  0.93644  1.0000
  H   H3        1.0  0.10436  0.02142  0.92316  1.0000
  H   H4        1.0  0.03733  0.08425  0.97054  1.0000
  H   H5        1.0  0.02666  0.99146  0.02685  1.0000
  H   H6        1.0  0.94805  0.00928  0.04625  1.0000
  H   H7        1.0  0.97546  0.93744  0.99484  1.0000
  H   H8        1.0  0.91808  0.91028  0.05581  1.0000
  H   H9        1.0  0.83816  0.93708  0.03097  1.0000
  H   H10       1.0  0.84652  0.98092  0.95532  1.0000
  H   H11       1.0  0.90837  0.92098  0.94219  1.0000
  H   H12       1.0  0.93065  0.97418  0.92782  1.0000
  H   H13       1.0  0.90090  0.04428  0.96492  1.0000
  H   H14       1.0  0.81541  0.06640  0.04270  1.0000
  H   H15       1.0  0.14955  0.06550  0.99906  1.0000
  H   H16       1.0  0.20972  0.03458  0.04698  1.0000
  H   H17       1.0  0.19627  0.96358  0.08832  1.0000
  H   H18       1.0  0.12254  0.92611  0.07983  1.0000
