data_image0
_chemical_formula_structural       C2OCNCOC6OH19
_chemical_formula_sum              "C10 O3 N1 H19"
_cell_length_a       30
_cell_length_b       30
_cell_length_c       30
_cell_angle_alpha    90
_cell_angle_beta     90
_cell_angle_gamma    90

_space_group_name_H-M_alt    "P 1"
_space_group_IT_number       1

loop_
  _space_group_symop_operation_xyz
  'x, y, z'

loop_
  _atom_site_type_symbol
  _atom_site_label
  _atom_site_symmetry_multiplicity
  _atom_site_fract_x
  _atom_site_fract_y
  _atom_site_fract_z
  _atom_site_occupancy
  C   C1        1.0  0.88741  0.96425  0.00680  1.0000
  C   C2        1.0  0.89718  0.98369  0.05271  1.0000
  O   O1        1.0  0.87144  0.95959  0.08486  1.0000
  C   C3        1.0  0.94669  0.97998  0.06531  1.0000
  N   N1        1.0  0.97675  0.00237  0.03487  1.0000
  C   C4        1.0  0.97956  0.04791  0.03215  1.0000
  O   O2        1.0  0.95466  0.07328  0.05242  1.0000
  C   C5        1.0  0.01510  0.06505  0.00048  1.0000
  C   C6        1.0  0.06239  0.05098  0.01366  1.0000
  C   C7        1.0  0.08073  0.01078  0.98821  1.0000
  C   C8        1.0  0.09202  0.01966  0.93958  1.0000
  C   C9        1.0  0.09064  0.97318  0.92044  1.0000
  C   C10       1.0  0.05200  0.95254  0.94549  1.0000
  O   O3        1.0  0.04959  0.97430  0.98817  1.0000
  H   H1        1.0  0.90504  0.98230  0.98047  1.0000
  H   H2        1.0  0.85162  0.96571  0.99972  1.0000
  H   H3        1.0  0.89693  0.92903  0.00528  1.0000
  H   H4        1.0  0.88642  0.01856  0.05378  1.0000
  H   H5        1.0  0.84033  0.96690  0.07938  1.0000
  H   H6        1.0  0.95674  0.94488  0.06681  1.0000
  H   H7        1.0  0.95185  0.99373  0.09879  1.0000
  H   H8        1.0  0.00122  0.98400  0.01998  1.0000
  H   H9        1.0  0.01322  0.10156  0.00151  1.0000
  H   H10       1.0  0.00625  0.05501  0.96654  1.0000
  H   H11       1.0  0.08515  0.07914  0.00852  1.0000
  H   H12       1.0  0.06308  0.04339  0.04943  1.0000
  H   H13       1.0  0.11081  0.99894  0.00536  1.0000
  H   H14       1.0  0.12435  0.03597  0.93539  1.0000
  H   H15       1.0  0.06668  0.04031  0.92332  1.0000
  H   H16       1.0  0.12159  0.95552  0.92856  1.0000
  H   H17       1.0  0.08624  0.97231  0.88429  1.0000
  H   H18       1.0  0.02036  0.95857  0.92831  1.0000
  H   H19       1.0  0.05598  0.91663  0.95029  1.0000
