data_image0
_chemical_formula_structural       C2SC7ONC3ONC4FC2ClH18
_chemical_formula_sum              "C18 S1 O2 N2 F1 Cl1 H18"
_cell_length_a       30
_cell_length_b       30
_cell_length_c       30
_cell_angle_alpha    90
_cell_angle_beta     90
_cell_angle_gamma    90

_space_group_name_H-M_alt    "P 1"
_space_group_IT_number       1

loop_
  _space_group_symop_operation_xyz
  'x, y, z'

loop_
  _atom_site_type_symbol
  _atom_site_label
  _atom_site_symmetry_multiplicity
  _atom_site_fract_x
  _atom_site_fract_y
  _atom_site_fract_z
  _atom_site_occupancy
  C   C1        1.0  0.03735  0.04250  0.00307  1.0000
  C   C2        1.0  0.04650  0.99514  0.01923  1.0000
  S   S1        1.0  0.07483  0.99522  0.07355  1.0000
  C   C3        1.0  0.13008  0.00841  0.05617  1.0000
  C   C4        1.0  0.15649  0.97652  0.03473  1.0000
  C   C5        1.0  0.19978  0.98712  0.02128  1.0000
  C   C6        1.0  0.21694  0.02955  0.02943  1.0000
  C   C7        1.0  0.19092  0.06130  0.05125  1.0000
  C   C8        1.0  0.14762  0.05072  0.06473  1.0000
  C   C9        1.0  0.00202  0.97023  0.02403  1.0000
  O   O1        1.0  0.97324  0.98244  0.05089  1.0000
  N   N1        1.0  0.99358  0.93402  0.99613  1.0000
  C   C10       1.0  0.01867  0.92516  0.95557  1.0000
  C   C11       1.0  0.94952  0.91327  0.99953  1.0000
  C   C12       1.0  0.91547  0.93801  0.97055  1.0000
  O   O2        1.0  0.90631  0.92446  0.93299  1.0000
  N   N2        1.0  0.89962  0.97650  0.99043  1.0000
  C   C13       1.0  0.86780  0.00693  0.97359  1.0000
  C   C14       1.0  0.84443  0.99978  0.93385  1.0000
  C   C15       1.0  0.81305  0.03085  0.91888  1.0000
  C   C16       1.0  0.80491  0.06910  0.94362  1.0000
  F   F1        1.0  0.77483  0.09871  0.92908  1.0000
  C   C17       1.0  0.82741  0.07706  0.98320  1.0000
  C   C18       1.0  0.85868  0.04601  0.99814  1.0000
  Cl  Cl1       1.0  0.88594  0.05725  0.04770  1.0000
  H   H1        1.0  0.06837  0.06062  0.99647  1.0000
  H   H2        1.0  0.01839  0.04175  0.97182  1.0000
  H   H3        1.0  0.01759  0.06176  0.02710  1.0000
  H   H4        1.0  0.06829  0.97856  0.99533  1.0000
  H   H5        1.0  0.14381  0.94312  0.02869  1.0000
  H   H6        1.0  0.22025  0.96221  0.00474  1.0000
  H   H7        1.0  0.25069  0.03777  0.01909  1.0000
  H   H8        1.0  0.20442  0.09427  0.05797  1.0000
  H   H9        1.0  0.12775  0.07572  0.08193  1.0000
  H   H10       1.0  0.05350  0.91871  0.96398  1.0000
  H   H11       1.0  0.00558  0.89584  0.93837  1.0000
  H   H12       1.0  0.01651  0.95421  0.93367  1.0000
  H   H13       1.0  0.93803  0.91296  0.03421  1.0000
  H   H14       1.0  0.95166  0.87845  0.98876  1.0000
  H   H15       1.0  0.91427  0.98526  0.02009  1.0000
  H   H16       1.0  0.84960  0.97017  0.91370  1.0000
  H   H17       1.0  0.79494  0.02522  0.88808  1.0000
  H   H18       1.0  0.82036  0.10715  0.00196  1.0000
