data_image0
_chemical_formula_structural       C2NCSO2NC8NCOH13
_chemical_formula_sum              "C12 N3 S1 O3 H13"
_cell_length_a       30
_cell_length_b       30
_cell_length_c       30
_cell_angle_alpha    90
_cell_angle_beta     90
_cell_angle_gamma    90

_space_group_name_H-M_alt    "P 1"
_space_group_IT_number       1

loop_
  _space_group_symop_operation_xyz
  'x, y, z'

loop_
  _atom_site_type_symbol
  _atom_site_label
  _atom_site_symmetry_multiplicity
  _atom_site_fract_x
  _atom_site_fract_y
  _atom_site_fract_z
  _atom_site_occupancy
  C   C1        1.0  0.09624  0.04976  0.03630  1.0000
  C   C2        1.0  0.08529  0.01375  0.00191  1.0000
  N   N1        1.0  0.11574  0.01948  0.96345  1.0000
  C   C3        1.0  0.08926  0.96718  0.02262  1.0000
  S   S1        1.0  0.04796  0.93401  0.99635  1.0000
  O   O1        1.0  0.06568  0.91612  0.95531  1.0000
  O   O2        1.0  0.02595  0.90659  0.02923  1.0000
  N   N2        1.0  0.01493  0.97690  0.98367  1.0000
  C   C4        1.0  0.97213  0.96791  0.96226  1.0000
  C   C5        1.0  0.93332  0.98782  0.98770  1.0000
  C   C6        1.0  0.92273  0.97014  0.02989  1.0000
  C   C7        1.0  0.88777  0.98767  0.05507  1.0000
  C   C8        1.0  0.86282  0.02313  0.03861  1.0000
  C   C9        1.0  0.87274  0.04101  0.99685  1.0000
  C   C10       1.0  0.90779  0.02362  0.97121  1.0000
  C   C11       1.0  0.91589  0.04284  0.92810  1.0000
  N   N3        1.0  0.92148  0.05734  0.89267  1.0000
  C   C12       1.0  0.03608  0.01876  0.98654  1.0000
  O   O3        1.0  0.01758  0.05368  0.97685  1.0000
  H   H1        1.0  0.13002  0.04568  0.04961  1.0000
  H   H2        1.0  0.07288  0.04864  0.06438  1.0000
  H   H3        1.0  0.09379  0.08324  0.02184  1.0000
  H   H4        1.0  0.14822  0.01625  0.97292  1.0000
  H   H5        1.0  0.11011  0.99578  0.93957  1.0000
  H   H6        1.0  0.12194  0.95174  0.01794  1.0000
  H   H7        1.0  0.08140  0.96765  0.05828  1.0000
  H   H8        1.0  0.96621  0.93191  0.95952  1.0000
  H   H9        1.0  0.97364  0.97985  0.92781  1.0000
  H   H10       1.0  0.94187  0.94240  0.04343  1.0000
  H   H11       1.0  0.88008  0.97360  0.08758  1.0000
  H   H12       1.0  0.83560  0.03684  0.05823  1.0000
  H   H13       1.0  0.85287  0.06870  0.98433  1.0000
