data_image0
_chemical_formula_structural       C5NCONC7ONC7H29
_chemical_formula_sum              "C20 N3 O2 H29"
_cell_length_a       30
_cell_length_b       30
_cell_length_c       30
_cell_angle_alpha    90
_cell_angle_beta     90
_cell_angle_gamma    90

_space_group_name_H-M_alt    "P 1"
_space_group_IT_number       1

loop_
  _space_group_symop_operation_xyz
  'x, y, z'

loop_
  _atom_site_type_symbol
  _atom_site_label
  _atom_site_symmetry_multiplicity
  _atom_site_fract_x
  _atom_site_fract_y
  _atom_site_fract_z
  _atom_site_occupancy
  C   C1        1.0  0.81446  0.98669  0.94517  1.0000
  C   C2        1.0  0.84043  0.00237  0.98545  1.0000
  C   C3        1.0  0.81016  0.00999  0.02518  1.0000
  C   C4        1.0  0.88692  0.98413  0.99505  1.0000
  C   C5        1.0  0.90868  0.94829  0.96805  1.0000
  N   N1        1.0  0.95652  0.95378  0.96996  1.0000
  C   C6        1.0  0.98149  0.93484  0.00359  1.0000
  O   O1        1.0  0.96527  0.91023  0.03180  1.0000
  N   N2        1.0  0.02538  0.94766  0.00035  1.0000
  C   C7        1.0  0.06196  0.93504  0.02737  1.0000
  C   C8        1.0  0.05783  0.90526  0.06303  1.0000
  C   C9        1.0  0.09524  0.89200  0.08755  1.0000
  C   C10       1.0  0.13739  0.90803  0.07665  1.0000
  C   C11       1.0  0.14216  0.93821  0.04169  1.0000
  C   C12       1.0  0.10457  0.95268  0.01786  1.0000
  C   C13       1.0  0.11019  0.98623  0.98175  1.0000
  O   O2        1.0  0.09121  0.97973  0.94595  1.0000
  N   N3        1.0  0.13481  0.02439  0.99004  1.0000
  C   C14       1.0  0.14027  0.05778  0.95538  1.0000
  C   C15       1.0  0.16834  0.09401  0.97702  1.0000
  C   C16       1.0  0.15331  0.09208  0.02547  1.0000
  C   C17       1.0  0.14737  0.04227  0.03350  1.0000
  C   C18       1.0  0.88192  0.03225  0.97930  1.0000
  C   C19       1.0  0.89162  0.06846  0.01315  1.0000
  C   C20       1.0  0.89619  0.04589  0.93290  1.0000
  H   H1        1.0  0.79020  0.01217  0.93540  1.0000
  H   H2        1.0  0.83502  0.97947  0.91604  1.0000
  H   H3        1.0  0.79616  0.95613  0.95318  1.0000
  H   H4        1.0  0.78729  0.98185  0.02937  1.0000
  H   H5        1.0  0.82852  0.01343  0.05649  1.0000
  H   H6        1.0  0.79029  0.04019  0.02016  1.0000
  H   H7        1.0  0.89518  0.97890  0.03002  1.0000
  H   H8        1.0  0.89952  0.94914  0.93284  1.0000
  H   H9        1.0  0.89936  0.91550  0.98115  1.0000
  H   H10       1.0  0.96894  0.98154  0.95568  1.0000
  H   H11       1.0  0.03377  0.96439  0.97207  1.0000
  H   H12       1.0  0.02584  0.89104  0.07225  1.0000
  H   H13       1.0  0.09124  0.86845  0.11484  1.0000
  H   H14       1.0  0.16642  0.89688  0.09526  1.0000
  H   H15       1.0  0.17524  0.95002  0.03282  1.0000
  H   H16       1.0  0.15598  0.04317  0.92590  1.0000
  H   H17       1.0  0.10719  0.07034  0.94623  1.0000
  H   H18       1.0  0.16329  0.12672  0.96176  1.0000
  H   H19       1.0  0.20382  0.08553  0.97471  1.0000
  H   H20       1.0  0.17715  0.10728  0.04846  1.0000
  H   H21       1.0  0.12125  0.10926  0.02916  1.0000
  H   H22       1.0  0.17911  0.02715  0.04323  1.0000
  H   H23       1.0  0.12207  0.03516  0.05876  1.0000
  H   H24       1.0  0.92609  0.08001  0.00978  1.0000
  H   H25       1.0  0.88761  0.05715  0.04757  1.0000
  H   H26       1.0  0.86941  0.09692  0.00779  1.0000
  H   H27       1.0  0.93095  0.05707  0.93316  1.0000
  H   H28       1.0  0.87549  0.07363  0.92125  1.0000
  H   H29       1.0  0.89391  0.01922  0.90827  1.0000
