data_image0
_chemical_formula_structural       C5NCOC9NC2H22
_chemical_formula_sum              "C17 N2 O1 H22"
_cell_length_a       30
_cell_length_b       30
_cell_length_c       30
_cell_angle_alpha    90
_cell_angle_beta     90
_cell_angle_gamma    90

_space_group_name_H-M_alt    "P 1"
_space_group_IT_number       1

loop_
  _space_group_symop_operation_xyz
  'x, y, z'

loop_
  _atom_site_type_symbol
  _atom_site_label
  _atom_site_symmetry_multiplicity
  _atom_site_fract_x
  _atom_site_fract_y
  _atom_site_fract_z
  _atom_site_occupancy
  C   C1        1.0  0.13469  0.06244  0.99957  1.0000
  C   C2        1.0  0.09937  0.03291  0.97768  1.0000
  C   C3        1.0  0.11791  0.01380  0.93390  1.0000
  C   C4        1.0  0.05570  0.05853  0.96975  1.0000
  C   C5        1.0  0.02042  0.02202  0.96826  1.0000
  N   N1        1.0  0.03721  0.98760  0.99802  1.0000
  C   C6        1.0  0.01484  0.95245  0.01765  1.0000
  O   O1        1.0  0.03496  0.92791  0.04399  1.0000
  C   C7        1.0  0.96462  0.94394  0.00707  1.0000
  C   C8        1.0  0.94989  0.90109  0.03205  1.0000
  C   C9        1.0  0.95980  0.93367  0.95688  1.0000
  C   C10       1.0  0.93440  0.98165  0.02440  1.0000
  C   C11       1.0  0.94302  0.00133  0.06617  1.0000
  C   C12       1.0  0.91598  0.03527  0.08300  1.0000
  C   C13       1.0  0.87938  0.05009  0.05862  1.0000
  C   C14       1.0  0.86965  0.03074  0.01743  1.0000
  C   C15       1.0  0.83181  0.04567  0.99234  1.0000
  N   N2        1.0  0.80134  0.05778  0.97180  1.0000
  C   C16       1.0  0.89688  0.99665  0.00059  1.0000
  C   C17       1.0  0.08398  0.99534  0.00890  1.0000
  H   H1        1.0  0.12261  0.07668  0.03095  1.0000
  H   H2        1.0  0.16493  0.04337  0.00703  1.0000
  H   H3        1.0  0.14394  0.09019  0.97770  1.0000
  H   H4        1.0  0.14845  0.99470  0.93995  1.0000
  H   H5        1.0  0.12599  0.04056  0.91039  1.0000
  H   H6        1.0  0.09419  0.99145  0.91748  1.0000
  H   H7        1.0  0.05592  0.07874  0.93937  1.0000
  H   H8        1.0  0.04870  0.08080  0.99792  1.0000
  H   H9        1.0  0.98778  0.03435  0.97836  1.0000
  H   H10       1.0  0.01816  0.00793  0.93471  1.0000
  H   H11       1.0  0.95418  0.90420  0.06822  1.0000
  H   H12       1.0  0.91466  0.89348  0.02593  1.0000
  H   H13       1.0  0.96950  0.87216  0.02133  1.0000
  H   H14       1.0  0.98645  0.91144  0.94542  1.0000
  H   H15       1.0  0.92803  0.91713  0.94954  1.0000
  H   H16       1.0  0.96089  0.96363  0.93619  1.0000
  H   H17       1.0  0.97112  0.99016  0.08635  1.0000
  H   H18       1.0  0.92347  0.04995  0.11530  1.0000
  H   H19       1.0  0.85846  0.07651  0.07206  1.0000
  H   H20       1.0  0.88815  0.98185  0.96864  1.0000
  H   H21       1.0  0.08535  0.00534  0.04404  1.0000
  H   H22       1.0  0.10319  0.96453  0.00500  1.0000
