data_image0
_chemical_formula_structural       C3OC4NCOC5N2CNH22
_chemical_formula_sum              "C14 O2 N4 H22"
_cell_length_a       30
_cell_length_b       30
_cell_length_c       30
_cell_angle_alpha    90
_cell_angle_beta     90
_cell_angle_gamma    90

_space_group_name_H-M_alt    "P 1"
_space_group_IT_number       1

loop_
  _space_group_symop_operation_xyz
  'x, y, z'

loop_
  _atom_site_type_symbol
  _atom_site_label
  _atom_site_symmetry_multiplicity
  _atom_site_fract_x
  _atom_site_fract_y
  _atom_site_fract_z
  _atom_site_occupancy
  C   C1        1.0  0.87398  0.02175  0.98929  1.0000
  C   C2        1.0  0.90569  0.98324  0.00054  1.0000
  C   C3        1.0  0.91300  0.98093  0.05157  1.0000
  O   O1        1.0  0.93289  0.02102  0.06784  1.0000
  C   C4        1.0  0.88731  0.93853  0.98339  1.0000
  C   C5        1.0  0.92808  0.90837  0.97832  1.0000
  C   C6        1.0  0.96844  0.93928  0.97440  1.0000
  C   C7        1.0  0.94951  0.98674  0.97357  1.0000
  N   N1        1.0  0.98028  0.01959  0.99075  1.0000
  C   C8        1.0  0.01843  0.03214  0.96864  1.0000
  O   O2        1.0  0.02718  0.01845  0.93094  1.0000
  C   C9        1.0  0.04751  0.06712  0.99330  1.0000
  C   C10       1.0  0.05935  0.05345  0.04185  1.0000
  C   C11       1.0  0.09900  0.02423  0.04167  1.0000
  C   C12       1.0  0.12663  0.02081  0.00543  1.0000
  C   C13       1.0  0.12074  0.04312  0.96202  1.0000
  N   N2        1.0  0.08758  0.07937  0.96568  1.0000
  N   N3        1.0  0.15919  0.99165  0.01791  1.0000
  C   C14       1.0  0.14971  0.97884  0.06078  1.0000
  N   N4        1.0  0.11330  0.99804  0.07606  1.0000
  H   H1        1.0  0.86715  0.02332  0.95345  1.0000
  H   H2        1.0  0.88801  0.05399  0.99914  1.0000
  H   H3        1.0  0.84197  0.01770  0.00640  1.0000
  H   H4        1.0  0.93474  0.95318  0.06101  1.0000
  H   H5        1.0  0.88108  0.97647  0.06875  1.0000
  H   H6        1.0  0.93441  0.01803  0.10018  1.0000
  H   H7        1.0  0.86231  0.92389  0.00558  1.0000
  H   H8        1.0  0.87160  0.94279  0.95062  1.0000
  H   H9        1.0  0.92478  0.88680  0.94906  1.0000
  H   H10       1.0  0.93177  0.88665  0.00746  1.0000
  H   H11       1.0  0.98787  0.93214  0.94433  1.0000
  H   H12       1.0  0.99078  0.93428  0.00291  1.0000
  H   H13       1.0  0.94219  0.99559  0.93878  1.0000
  H   H14       1.0  0.97283  0.03258  0.02124  1.0000
  H   H15       1.0  0.02665  0.09714  0.99511  1.0000
  H   H16       1.0  0.03181  0.03672  0.05887  1.0000
  H   H17       1.0  0.06739  0.08353  0.06103  1.0000
  H   H18       1.0  0.11054  0.01872  0.93686  1.0000
  H   H19       1.0  0.15233  0.05757  0.95080  1.0000
  H   H20       1.0  0.07629  0.08555  0.93412  1.0000
  H   H21       1.0  0.18524  0.98110  0.99936  1.0000
  H   H22       1.0  0.17046  0.95558  0.07890  1.0000
