data_image0
_chemical_formula_structural       C3OC3NCONC2N2C7OCH28
_chemical_formula_sum              "C17 O3 N4 H28"
_cell_length_a       30
_cell_length_b       30
_cell_length_c       30
_cell_angle_alpha    90
_cell_angle_beta     90
_cell_angle_gamma    90

_space_group_name_H-M_alt    "P 1"
_space_group_IT_number       1

loop_
  _space_group_symop_operation_xyz
  'x, y, z'

loop_
  _atom_site_type_symbol
  _atom_site_label
  _atom_site_symmetry_multiplicity
  _atom_site_fract_x
  _atom_site_fract_y
  _atom_site_fract_z
  _atom_site_occupancy
  C   C1        1.0  0.82252  0.95684  0.03160  1.0000
  C   C2        1.0  0.83576  0.99582  0.00061  1.0000
  C   C3        1.0  0.80618  0.03637  0.01223  1.0000
  O   O1        1.0  0.81195  0.04904  0.05759  1.0000
  C   C4        1.0  0.82813  0.98124  0.95195  1.0000
  C   C5        1.0  0.84445  0.01519  0.91765  1.0000
  C   C6        1.0  0.88346  0.04370  0.93354  1.0000
  N   N1        1.0  0.90974  0.02194  0.96799  1.0000
  C   C7        1.0  0.95585  0.02343  0.96417  1.0000
  O   O2        1.0  0.97516  0.03671  0.93062  1.0000
  N   N2        1.0  0.97878  0.00807  0.00064  1.0000
  C   C8        1.0  0.02727  0.00878  0.00148  1.0000
  C   C9        1.0  0.04870  0.97453  0.97029  1.0000
  N   N3        1.0  0.09635  0.97084  0.97773  1.0000
  N   N4        1.0  0.12597  0.99783  0.95520  1.0000
  C   C10       1.0  0.16480  0.98912  0.97202  1.0000
  C   C11       1.0  0.20743  0.01142  0.95953  1.0000
  C   C12       1.0  0.22883  0.02931  0.00214  1.0000
  C   C13       1.0  0.23177  0.99374  0.03880  1.0000
  C   C14       1.0  0.18609  0.97338  0.04946  1.0000
  C   C15       1.0  0.16468  0.95419  0.00776  1.0000
  C   C16       1.0  0.11548  0.94566  0.01189  1.0000
  O   O3        1.0  0.09708  0.92209  0.03939  1.0000
  C   C17       1.0  0.88590  0.00611  0.00778  1.0000
  H   H1        1.0  0.78693  0.94917  0.02859  1.0000
  H   H2        1.0  0.82941  0.96459  0.06661  1.0000
  H   H3        1.0  0.84102  0.92645  0.02329  1.0000
  H   H4        1.0  0.81378  0.06543  0.99165  1.0000
  H   H5        1.0  0.77090  0.02823  0.00728  1.0000
  H   H6        1.0  0.79152  0.07358  0.06332  1.0000
  H   H7        1.0  0.79283  0.97386  0.94588  1.0000
  H   H8        1.0  0.84604  0.94982  0.94607  1.0000
  H   H9        1.0  0.81703  0.03722  0.90769  1.0000
  H   H10       1.0  0.85416  0.99708  0.88740  1.0000
  H   H11       1.0  0.90388  0.05305  0.90475  1.0000
  H   H12       1.0  0.87146  0.07514  0.94774  1.0000
  H   H13       1.0  0.96384  0.01377  0.03017  1.0000
  H   H14       1.0  0.03865  0.04251  0.99319  1.0000
  H   H15       1.0  0.03706  0.00216  0.03604  1.0000
  H   H16       1.0  0.03389  0.94166  0.97633  1.0000
  H   H17       1.0  0.04309  0.98284  0.93520  1.0000
  H   H18       1.0  0.20116  0.03838  0.93579  1.0000
  H   H19       1.0  0.22912  0.98673  0.94366  1.0000
  H   H20       1.0  0.20916  0.05752  0.01464  1.0000
  H   H21       1.0  0.26223  0.04205  0.99466  1.0000
  H   H22       1.0  0.25472  0.96730  0.02824  1.0000
  H   H23       1.0  0.24580  0.00863  0.06907  1.0000
  H   H24       1.0  0.18974  0.94725  0.07473  1.0000
  H   H25       1.0  0.16463  0.99911  0.06420  1.0000
  H   H26       1.0  0.18174  0.92431  0.99564  1.0000
  H   H27       1.0  0.90303  0.97577  0.01887  1.0000
  H   H28       1.0  0.89081  0.03104  0.03404  1.0000
