data_image0
_chemical_formula_structural       C4OC6ONC2OC9O2CH27
_chemical_formula_sum              "C22 O5 N1 H27"
_cell_length_a       30
_cell_length_b       30
_cell_length_c       30
_cell_angle_alpha    90
_cell_angle_beta     90
_cell_angle_gamma    90

_space_group_name_H-M_alt    "P 1"
_space_group_IT_number       1

loop_
  _space_group_symop_operation_xyz
  'x, y, z'

loop_
  _atom_site_type_symbol
  _atom_site_label
  _atom_site_symmetry_multiplicity
  _atom_site_fract_x
  _atom_site_fract_y
  _atom_site_fract_z
  _atom_site_occupancy
  C   C1        1.0  0.12162  0.92099  0.06079  1.0000
  C   C2        1.0  0.14610  0.94114  0.02041  1.0000
  C   C3        1.0  0.18575  0.91163  0.00818  1.0000
  C   C4        1.0  0.16009  0.98917  0.03000  1.0000
  O   O1        1.0  0.12122  0.01632  0.02282  1.0000
  C   C5        1.0  0.09554  0.99303  0.99213  1.0000
  C   C6        1.0  0.05728  0.00964  0.97629  1.0000
  C   C7        1.0  0.03728  0.05325  0.98821  1.0000
  C   C8        1.0  0.98747  0.04377  0.98214  1.0000
  C   C9        1.0  0.96837  0.02240  0.02530  1.0000
  C   C10       1.0  0.91796  0.01727  0.02605  1.0000
  O   O2        1.0  0.89523  0.04807  0.04129  1.0000
  N   N1        1.0  0.89868  0.97828  0.01092  1.0000
  C   C11       1.0  0.84991  0.97494  0.00902  1.0000
  C   C12       1.0  0.83376  0.93436  0.03563  1.0000
  O   O3        1.0  0.85500  0.89409  0.02050  1.0000
  C   C13       1.0  0.90257  0.89736  0.02458  1.0000
  C   C14       1.0  0.92097  0.93681  0.99758  1.0000
  C   C15       1.0  0.96507  0.08754  0.96817  1.0000
  C   C16       1.0  0.95163  0.09612  0.92411  1.0000
  C   C17       1.0  0.93260  0.13698  0.91220  1.0000
  C   C18       1.0  0.92692  0.17030  0.94396  1.0000
  C   C19       1.0  0.94024  0.16277  0.98771  1.0000
  C   C20       1.0  0.95923  0.12195  0.99964  1.0000
  C   C21       1.0  0.98996  0.00722  0.94702  1.0000
  O   O4        1.0  0.95951  0.99495  0.92281  1.0000
  O   O5        1.0  0.03042  0.98577  0.94726  1.0000
  C   C22       1.0  0.11435  0.94805  0.98135  1.0000
  H   H1        1.0  0.10926  0.88748  0.05312  1.0000
  H   H2        1.0  0.14401  0.91832  0.08952  1.0000
  H   H3        1.0  0.09299  0.94117  0.07105  1.0000
  H   H4        1.0  0.17481  0.87785  0.99964  1.0000
  H   H5        1.0  0.20390  0.92493  0.97940  1.0000
  H   H6        1.0  0.20936  0.90920  0.03595  1.0000
  H   H7        1.0  0.18625  0.00078  0.00723  1.0000
  H   H8        1.0  0.17180  0.99396  0.06426  1.0000
  H   H9        1.0  0.04957  0.07855  0.96476  1.0000
  H   H10       1.0  0.04552  0.06422  0.02206  1.0000
  H   H11       1.0  0.98431  0.99054  0.03313  1.0000
  H   H12       1.0  0.97660  0.04338  0.05422  1.0000
  H   H13       1.0  0.84127  0.97085  0.97364  1.0000
  H   H14       1.0  0.83355  0.00525  0.02114  1.0000
  H   H15       1.0  0.84044  0.93854  0.07139  1.0000
  H   H16       1.0  0.79775  0.93012  0.03135  1.0000
  H   H17       1.0  0.91122  0.90051  0.05996  1.0000
  H   H18       1.0  0.91687  0.86614  0.01225  1.0000
  H   H19       1.0  0.91340  0.93175  0.96216  1.0000
  H   H20       1.0  0.95703  0.93850  0.00146  1.0000
  H   H21       1.0  0.95546  0.07145  0.89780  1.0000
  H   H22       1.0  0.92210  0.14264  0.87794  1.0000
  H   H23       1.0  0.91198  0.20194  0.93468  1.0000
  H   H24       1.0  0.93569  0.18859  0.01276  1.0000
  H   H25       1.0  0.96901  0.11738  0.03426  1.0000
  H   H26       1.0  0.13224  0.94972  0.94951  1.0000
  H   H27       1.0  0.08885  0.92202  0.97928  1.0000
