data_image0
_chemical_formula_structural       C6NCOCNC2NC2NC6FC3N2C2H31
_chemical_formula_sum              "C23 N6 O1 F1 H31"
_cell_length_a       30
_cell_length_b       30
_cell_length_c       30
_cell_angle_alpha    90
_cell_angle_beta     90
_cell_angle_gamma    90

_space_group_name_H-M_alt    "P 1"
_space_group_IT_number       1

loop_
  _space_group_symop_operation_xyz
  'x, y, z'

loop_
  _atom_site_type_symbol
  _atom_site_label
  _atom_site_symmetry_multiplicity
  _atom_site_fract_x
  _atom_site_fract_y
  _atom_site_fract_z
  _atom_site_occupancy
  C   C1        1.0  0.66777  0.94758  0.02760  1.0000
  C   C2        1.0  0.69968  0.98471  0.03962  1.0000
  C   C3        1.0  0.74770  0.97503  0.02598  1.0000
  C   C4        1.0  0.77753  0.01570  0.01891  1.0000
  C   C5        1.0  0.82528  0.00233  0.00695  1.0000
  C   C6        1.0  0.85365  0.04328  0.99688  1.0000
  N   N1        1.0  0.90016  0.03225  0.99100  1.0000
  C   C7        1.0  0.91688  0.01417  0.95172  1.0000
  O   O1        1.0  0.89333  0.00610  0.91926  1.0000
  C   C8        1.0  0.96607  0.00462  0.95210  1.0000
  N   N2        1.0  0.98483  0.98514  0.91644  1.0000
  C   C9        1.0  0.02936  0.97799  0.92049  1.0000
  C   C10       1.0  0.05546  0.98952  0.95710  1.0000
  N   N3        1.0  0.10089  0.98075  0.96030  1.0000
  C   C11       1.0  0.12949  0.98000  0.92041  1.0000
  C   C12       1.0  0.17010  0.01173  0.92486  1.0000
  N   N4        1.0  0.19630  0.00819  0.96636  1.0000
  C   C13       1.0  0.24179  0.99181  0.95904  1.0000
  C   C14       1.0  0.27256  0.00043  0.99814  1.0000
  C   C15       1.0  0.27217  0.04166  0.02045  1.0000
  C   C16       1.0  0.30044  0.04980  0.05655  1.0000
  C   C17       1.0  0.33073  0.01711  0.06991  1.0000
  C   C18       1.0  0.33211  0.97668  0.04727  1.0000
  F   F1        1.0  0.36182  0.94554  0.05972  1.0000
  C   C19       1.0  0.30373  0.96802  0.01159  1.0000
  C   C20       1.0  0.17250  0.98306  0.00138  1.0000
  C   C21       1.0  0.12239  0.99451  0.00222  1.0000
  N   N5        1.0  0.03359  0.00848  0.99160  1.0000
  N   N6        1.0  0.98848  0.01649  0.98938  1.0000
  C   C22       1.0  0.69185  0.00849  0.08373  1.0000
  C   C23       1.0  0.68081  0.03189  0.04062  1.0000
  H   H1        1.0  0.66648  0.94304  0.99126  1.0000
  H   H2        1.0  0.67842  0.91608  0.04274  1.0000
  H   H3        1.0  0.63378  0.95485  0.03905  1.0000
  H   H4        1.0  0.76248  0.95319  0.05137  1.0000
  H   H5        1.0  0.74715  0.95585  0.99483  1.0000
  H   H6        1.0  0.77829  0.03600  0.04912  1.0000
  H   H7        1.0  0.76378  0.03652  0.99234  1.0000
  H   H8        1.0  0.82518  0.98012  0.97803  1.0000
  H   H9        1.0  0.83995  0.98352  0.03450  1.0000
  H   H10       1.0  0.84163  0.05967  0.96670  1.0000
  H   H11       1.0  0.85186  0.06719  0.02433  1.0000
  H   H12       1.0  0.92147  0.03604  0.01699  1.0000
  H   H13       1.0  0.04381  0.96094  0.89215  1.0000
  H   H14       1.0  0.14146  0.94575  0.91564  1.0000
  H   H15       1.0  0.11148  0.98947  0.89009  1.0000
  H   H16       1.0  0.19118  0.00797  0.89515  1.0000
  H   H17       1.0  0.15748  0.04612  0.92359  1.0000
  H   H18       1.0  0.24132  0.95623  0.95079  1.0000
  H   H19       1.0  0.25685  0.00912  0.93044  1.0000
  H   H20       1.0  0.24915  0.06792  0.00998  1.0000
  H   H21       1.0  0.29831  0.08152  0.07423  1.0000
  H   H22       1.0  0.35300  0.02296  0.09778  1.0000
  H   H23       1.0  0.30611  0.93604  0.99485  1.0000
  H   H24       1.0  0.18662  0.99094  0.03415  1.0000
  H   H25       1.0  0.17628  0.94702  0.99613  1.0000
  H   H26       1.0  0.10695  0.97738  0.03041  1.0000
  H   H27       1.0  0.11849  0.03043  0.00728  1.0000
  H   H28       1.0  0.66423  0.99788  0.10464  1.0000
  H   H29       1.0  0.72042  0.02027  0.10265  1.0000
  H   H30       1.0  0.64573  0.03683  0.03252  1.0000
  H   H31       1.0  0.70123  0.06010  0.03094  1.0000
