data_image0
_chemical_formula_structural       C5SO2NC6OC7H19
_chemical_formula_sum              "C18 S1 O3 N1 H19"
_cell_length_a       30
_cell_length_b       30
_cell_length_c       30
_cell_angle_alpha    90
_cell_angle_beta     90
_cell_angle_gamma    90

_space_group_name_H-M_alt    "P 1"
_space_group_IT_number       1

loop_
  _space_group_symop_operation_xyz
  'x, y, z'

loop_
  _atom_site_type_symbol
  _atom_site_label
  _atom_site_symmetry_multiplicity
  _atom_site_fract_x
  _atom_site_fract_y
  _atom_site_fract_z
  _atom_site_occupancy
  C   C1        1.0  0.17879  0.97546  0.06740  1.0000
  C   C2        1.0  0.13904  0.99211  0.04198  1.0000
  C   C3        1.0  0.10271  0.01082  0.06465  1.0000
  C   C4        1.0  0.06528  0.02542  0.04122  1.0000
  C   C5        1.0  0.06401  0.02078  0.99489  1.0000
  S   S1        1.0  0.01594  0.03897  0.96508  1.0000
  O   O1        1.0  0.01722  0.01902  0.92112  1.0000
  O   O2        1.0  0.01532  0.08698  0.97047  1.0000
  N   N1        1.0  0.97320  0.01659  0.99410  1.0000
  C   C6        1.0  0.96504  0.96910  0.99758  1.0000
  C   C7        1.0  0.99366  0.93649  0.98048  1.0000
  C   C8        1.0  0.98462  0.89107  0.98632  1.0000
  C   C9        1.0  0.94684  0.87747  0.00949  1.0000
  C   C10       1.0  0.91802  0.90934  0.02691  1.0000
  C   C11       1.0  0.92717  0.95471  0.02143  1.0000
  O   O3        1.0  0.89561  0.98266  0.03939  1.0000
  C   C12       1.0  0.90929  0.02825  0.04259  1.0000
  C   C13       1.0  0.93362  0.04539  0.00100  1.0000
  C   C14       1.0  0.90379  0.04587  0.96040  1.0000
  C   C15       1.0  0.87142  0.08369  0.95294  1.0000
  C   C16       1.0  0.91138  0.07883  0.92314  1.0000
  C   C17       1.0  0.09985  0.00201  0.97184  1.0000
  C   C18       1.0  0.13718  0.98750  0.99551  1.0000
  H   H1        1.0  0.17390  0.94052  0.07667  1.0000
  H   H2        1.0  0.20916  0.97823  0.04734  1.0000
  H   H3        1.0  0.18402  0.99511  0.09771  1.0000
  H   H4        1.0  0.10349  0.01421  0.10076  1.0000
  H   H5        1.0  0.03748  0.04023  0.05912  1.0000
  H   H6        1.0  0.02315  0.94482  0.96138  1.0000
  H   H7        1.0  0.00717  0.86633  0.97239  1.0000
  H   H8        1.0  0.93976  0.84221  0.01381  1.0000
  H   H9        1.0  0.88830  0.89897  0.04486  1.0000
  H   H10       1.0  0.93054  0.03158  0.07220  1.0000
  H   H11       1.0  0.87920  0.04805  0.04864  1.0000
  H   H12       1.0  0.94426  0.07945  0.00892  1.0000
  H   H13       1.0  0.89255  0.01280  0.95096  1.0000
  H   H14       1.0  0.83901  0.07568  0.93908  1.0000
  H   H15       1.0  0.87111  0.11143  0.97609  1.0000
  H   H16       1.0  0.90625  0.06726  0.88927  1.0000
  H   H17       1.0  0.93773  0.10337  0.92626  1.0000
  H   H18       1.0  0.09897  0.99855  0.93576  1.0000
  H   H19       1.0  0.16494  0.97266  0.97747  1.0000
