data_image0
_chemical_formula_structural       C7NC4ONC3NC4NC4NH33
_chemical_formula_sum              "C22 N5 O1 H33"
_cell_length_a       30
_cell_length_b       30
_cell_length_c       30
_cell_angle_alpha    90
_cell_angle_beta     90
_cell_angle_gamma    90

_space_group_name_H-M_alt    "P 1"
_space_group_IT_number       1

loop_
  _space_group_symop_operation_xyz
  'x, y, z'

loop_
  _atom_site_type_symbol
  _atom_site_label
  _atom_site_symmetry_multiplicity
  _atom_site_fract_x
  _atom_site_fract_y
  _atom_site_fract_z
  _atom_site_occupancy
  C   C1        1.0  0.93664  0.98556  0.12071  1.0000
  C   C2        1.0  0.92400  0.98112  0.07204  1.0000
  C   C3        1.0  0.90507  0.94287  0.05835  1.0000
  C   C4        1.0  0.88513  0.93002  0.01266  1.0000
  C   C5        1.0  0.87519  0.94403  0.97102  1.0000
  C   C6        1.0  0.85755  0.89988  0.96225  1.0000
  C   C7        1.0  0.86714  0.88692  0.00397  1.0000
  N   N1        1.0  0.87500  0.97681  0.94209  1.0000
  C   C8        1.0  0.88536  0.02112  0.94820  1.0000
  C   C9        1.0  0.91605  0.04263  0.97300  1.0000
  C   C10       1.0  0.91465  0.09314  0.97350  1.0000
  C   C11       1.0  0.91573  0.11274  0.02008  1.0000
  O   O1        1.0  0.88230  0.12816  0.03821  1.0000
  N   N2        1.0  0.95486  0.11250  0.04348  1.0000
  C   C12       1.0  0.99995  0.11296  0.02646  1.0000
  C   C13       1.0  0.01388  0.07942  0.99080  1.0000
  C   C14       1.0  0.00195  0.03024  0.99948  1.0000
  N   N3        1.0  0.02677  0.99922  0.96875  1.0000
  C   C15       1.0  0.01884  0.00898  0.92166  1.0000
  C   C16       1.0  0.07458  0.99235  0.98001  1.0000
  C   C17       1.0  0.09946  0.96115  0.94766  1.0000
  C   C18       1.0  0.14905  0.95687  0.95982  1.0000
  N   N4        1.0  0.15837  0.96277  0.00753  1.0000
  C   C19       1.0  0.20098  0.94250  0.01953  1.0000
  C   C20       1.0  0.12194  0.94528  0.03461  1.0000
  C   C21       1.0  0.07996  0.97355  0.02788  1.0000
  C   C22       1.0  0.95025  0.01764  0.00072  1.0000
  N   N5        1.0  0.93338  0.01832  0.04657  1.0000
  H   H1        1.0  0.97229  0.99281  0.12382  1.0000
  H   H2        1.0  0.92986  0.95528  0.13992  1.0000
  H   H3        1.0  0.91792  0.01286  0.13609  1.0000
  H   H4        1.0  0.90199  0.91613  0.08265  1.0000
  H   H5        1.0  0.84245  0.88436  0.93333  1.0000
  H   H6        1.0  0.86331  0.85661  0.02320  1.0000
  H   H7        1.0  0.85639  0.97232  0.91404  1.0000
  H   H8        1.0  0.86321  0.04113  0.92746  1.0000
  H   H9        1.0  0.94031  0.10816  0.95266  1.0000
  H   H10       1.0  0.88336  0.10511  0.95864  1.0000
  H   H11       1.0  0.95023  0.12824  0.07309  1.0000
  H   H12       1.0  0.00602  0.14671  0.01384  1.0000
  H   H13       1.0  0.02146  0.10857  0.05567  1.0000
  H   H14       1.0  0.00244  0.08997  0.95791  1.0000
  H   H15       1.0  0.05026  0.08264  0.98855  1.0000
  H   H16       1.0  0.01365  0.02303  0.03331  1.0000
  H   H17       1.0  0.98383  0.01648  0.91490  1.0000
  H   H18       1.0  0.02633  0.97989  0.90094  1.0000
  H   H19       1.0  0.03890  0.03713  0.90992  1.0000
  H   H20       1.0  0.09171  0.02465  0.97848  1.0000
  H   H21       1.0  0.09777  0.97322  0.91323  1.0000
  H   H22       1.0  0.08380  0.92807  0.94824  1.0000
  H   H23       1.0  0.16797  0.98220  0.94145  1.0000
  H   H24       1.0  0.16062  0.92429  0.94779  1.0000
  H   H25       1.0  0.22799  0.95651  0.99931  1.0000
  H   H26       1.0  0.20917  0.94965  0.05440  1.0000
  H   H27       1.0  0.20078  0.90624  0.01498  1.0000
  H   H28       1.0  0.11512  0.91028  0.02635  1.0000
  H   H29       1.0  0.13052  0.94616  0.07016  1.0000
  H   H30       1.0  0.05116  0.95288  0.03700  1.0000
  H   H31       1.0  0.08078  0.00156  0.05142  1.0000
  H   H32       1.0  0.95038  0.98290  0.98969  1.0000
  H   H33       1.0  0.94403  0.04521  0.06426  1.0000
