data_image0
_chemical_formula_structural       C5NCNCOCNC2NC5N2CSH14
_chemical_formula_sum              "C16 N6 O1 S1 H14"
_cell_length_a       30
_cell_length_b       30
_cell_length_c       30
_cell_angle_alpha    90
_cell_angle_beta     90
_cell_angle_gamma    90

_space_group_name_H-M_alt    "P 1"
_space_group_IT_number       1

loop_
  _space_group_symop_operation_xyz
  'x, y, z'

loop_
  _atom_site_type_symbol
  _atom_site_label
  _atom_site_symmetry_multiplicity
  _atom_site_fract_x
  _atom_site_fract_y
  _atom_site_fract_z
  _atom_site_occupancy
  C   C1        1.0  0.85411  0.04155  0.94956  1.0000
  C   C2        1.0  0.84976  0.01723  0.99322  1.0000
  C   C3        1.0  0.80962  0.99513  0.00280  1.0000
  C   C4        1.0  0.80433  0.97287  0.04327  1.0000
  C   C5        1.0  0.83961  0.97336  0.07295  1.0000
  N   N1        1.0  0.87829  0.99477  0.06502  1.0000
  C   C6        1.0  0.88336  0.01659  0.02586  1.0000
  N   N2        1.0  0.92299  0.04044  0.01833  1.0000
  C   C7        1.0  0.95922  0.04173  0.04705  1.0000
  O   O1        1.0  0.96353  0.02137  0.08235  1.0000
  C   C8        1.0  0.99678  0.07222  0.03030  1.0000
  N   N3        1.0  0.03794  0.04708  0.02520  1.0000
  C   C9        1.0  0.06619  0.03698  0.06023  1.0000
  C   C10       1.0  0.09896  0.01035  0.04553  1.0000
  N   N4        1.0  0.09251  0.00217  0.00081  1.0000
  C   C11       1.0  0.12424  0.97349  0.97708  1.0000
  C   C12       1.0  0.12970  0.95767  0.93469  1.0000
  C   C13       1.0  0.17094  0.93448  0.94999  1.0000
  C   C14       1.0  0.20843  0.90975  0.94997  1.0000
  C   C15       1.0  0.22168  0.91291  0.99611  1.0000
  N   N5        1.0  0.19362  0.93814  0.02109  1.0000
  N   N6        1.0  0.16423  0.94966  0.99055  1.0000
  C   C16       1.0  0.05330  0.02448  0.98628  1.0000
  S   S1        1.0  0.02985  0.02455  0.93610  1.0000
  H   H1        1.0  0.88452  0.03155  0.93174  1.0000
  H   H2        1.0  0.82593  0.03422  0.92718  1.0000
  H   H3        1.0  0.85425  0.07769  0.95544  1.0000
  H   H4        1.0  0.78205  0.99560  0.97906  1.0000
  H   H5        1.0  0.77362  0.95576  0.05151  1.0000
  H   H6        1.0  0.83764  0.95685  0.10520  1.0000
  H   H7        1.0  0.92560  0.05646  0.98895  1.0000
  H   H8        1.0  0.98796  0.08799  0.99848  1.0000
  H   H9        1.0  0.00177  0.09900  0.05471  1.0000
  H   H10       1.0  0.06036  0.04901  0.09374  1.0000
  H   H11       1.0  0.12619  0.99605  0.06450  1.0000
  H   H12       1.0  0.11191  0.96089  0.90335  1.0000
  H   H13       1.0  0.22466  0.89201  0.92317  1.0000
  H   H14       1.0  0.25036  0.89798  0.01192  1.0000
