data_image0
_chemical_formula_structural       C7ONC11OC3NC3H32
_chemical_formula_sum              "C24 O2 N2 H32"
_cell_length_a       30
_cell_length_b       30
_cell_length_c       30
_cell_angle_alpha    90
_cell_angle_beta     90
_cell_angle_gamma    90

_space_group_name_H-M_alt    "P 1"
_space_group_IT_number       1

loop_
  _space_group_symop_operation_xyz
  'x, y, z'

loop_
  _atom_site_type_symbol
  _atom_site_label
  _atom_site_symmetry_multiplicity
  _atom_site_fract_x
  _atom_site_fract_y
  _atom_site_fract_z
  _atom_site_occupancy
  C   C1        1.0  0.90415  0.94940  0.92188  1.0000
  C   C2        1.0  0.92052  0.98305  0.95459  1.0000
  C   C3        1.0  0.96348  0.98654  0.96709  1.0000
  C   C4        1.0  0.96859  0.02343  0.00021  1.0000
  C   C5        1.0  0.99235  0.01059  0.04173  1.0000
  C   C6        1.0  0.97920  0.97600  0.06684  1.0000
  C   C7        1.0  0.00311  0.96526  0.10861  1.0000
  O   O1        1.0  0.98439  0.97355  0.14408  1.0000
  N   N1        1.0  0.04475  0.94559  0.10504  1.0000
  C   C8        1.0  0.06964  0.93664  0.14565  1.0000
  C   C9        1.0  0.06569  0.93175  0.06325  1.0000
  C   C10       1.0  0.10150  0.96388  0.04988  1.0000
  C   C11       1.0  0.15004  0.95196  0.05358  1.0000
  C   C12       1.0  0.12851  0.95467  0.00810  1.0000
  C   C13       1.0  0.13916  0.99275  0.97695  1.0000
  C   C14       1.0  0.18322  0.00276  0.96469  1.0000
  C   C15       1.0  0.19296  0.03785  0.93562  1.0000
  C   C16       1.0  0.15862  0.06361  0.91799  1.0000
  C   C17       1.0  0.11464  0.05421  0.92933  1.0000
  C   C18       1.0  0.10514  0.01907  0.95836  1.0000
  O   O2        1.0  0.98385  0.06532  0.98121  1.0000
  C   C19       1.0  0.94026  0.08569  0.98715  1.0000
  C   C20       1.0  0.92344  0.10519  0.94365  1.0000
  C   C21       1.0  0.92027  0.04228  0.00597  1.0000
  N   N2        1.0  0.89363  0.01514  0.97524  1.0000
  C   C22       1.0  0.84506  0.01924  0.97734  1.0000
  C   C23       1.0  0.82372  0.02261  0.93136  1.0000
  C   C24       1.0  0.82470  0.98190  0.00527  1.0000
  H   H1        1.0  0.89331  0.96567  0.89107  1.0000
  H   H2        1.0  0.87660  0.92986  0.93551  1.0000
  H   H3        1.0  0.93053  0.92577  0.91299  1.0000
  H   H4        1.0  0.99076  0.96632  0.95521  1.0000
  H   H5        1.0  0.02068  0.03094  0.05135  1.0000
  H   H6        1.0  0.95008  0.95593  0.05960  1.0000
  H   H7        1.0  0.05210  0.94821  0.17542  1.0000
  H   H8        1.0  0.10188  0.95359  0.14394  1.0000
  H   H9        1.0  0.07496  0.90066  0.14846  1.0000
  H   H10       1.0  0.04096  0.92937  0.03658  1.0000
  H   H11       1.0  0.07899  0.89802  0.06791  1.0000
  H   H12       1.0  0.09238  0.99822  0.05650  1.0000
  H   H13       1.0  0.17293  0.97805  0.06364  1.0000
  H   H14       1.0  0.15909  0.91924  0.06596  1.0000
  H   H15       1.0  0.12271  0.92289  0.99160  1.0000
  H   H16       1.0  0.21048  0.98293  0.97809  1.0000
  H   H17       1.0  0.22737  0.04502  0.92683  1.0000
  H   H18       1.0  0.16612  0.09092  0.89541  1.0000
  H   H19       1.0  0.08752  0.07405  0.91577  1.0000
  H   H20       1.0  0.07051  0.01232  0.96673  1.0000
  H   H21       1.0  0.94234  0.11188  0.01270  1.0000
  H   H22       1.0  0.94346  0.13414  0.93413  1.0000
  H   H23       1.0  0.92510  0.08111  0.91630  1.0000
  H   H24       1.0  0.88885  0.11627  0.94705  1.0000
  H   H25       1.0  0.90687  0.04379  0.03984  1.0000
  H   H26       1.0  0.83738  0.05075  0.99438  1.0000
  H   H27       1.0  0.78884  0.03292  0.93437  1.0000
  H   H28       1.0  0.82381  0.99078  0.91357  1.0000
  H   H29       1.0  0.84093  0.04725  0.91066  1.0000
  H   H30       1.0  0.78918  0.98822  0.01107  1.0000
  H   H31       1.0  0.84116  0.97938  0.03777  1.0000
  H   H32       1.0  0.82753  0.94945  0.98890  1.0000
