data_image0
_chemical_formula_structural       C5NCNCOC4FC2ONC2NC7SC2H21
_chemical_formula_sum              "C24 N4 O2 F1 S1 H21"
_cell_length_a       30
_cell_length_b       30
_cell_length_c       30
_cell_angle_alpha    90
_cell_angle_beta     90
_cell_angle_gamma    90

_space_group_name_H-M_alt    "P 1"
_space_group_IT_number       1

loop_
  _space_group_symop_operation_xyz
  'x, y, z'

loop_
  _atom_site_type_symbol
  _atom_site_label
  _atom_site_symmetry_multiplicity
  _atom_site_fract_x
  _atom_site_fract_y
  _atom_site_fract_z
  _atom_site_occupancy
  C   C1        1.0  0.34014  0.03551  0.03232  1.0000
  C   C2        1.0  0.29614  0.01248  0.02595  1.0000
  C   C3        1.0  0.29239  0.96669  0.03357  1.0000
  C   C4        1.0  0.25142  0.94488  0.02877  1.0000
  C   C5        1.0  0.21326  0.96926  0.01645  1.0000
  N   N1        1.0  0.17086  0.95209  0.01053  1.0000
  C   C6        1.0  0.14367  0.98412  0.99931  1.0000
  N   N2        1.0  0.09897  0.98253  0.99033  1.0000
  C   C7        1.0  0.07532  0.94323  0.99037  1.0000
  O   O1        1.0  0.08991  0.90559  0.99638  1.0000
  C   C8        1.0  0.02672  0.94781  0.98064  1.0000
  C   C9        1.0  0.00484  0.91216  0.95982  1.0000
  C   C10       1.0  0.95941  0.91489  0.95026  1.0000
  C   C11       1.0  0.93566  0.95313  0.96164  1.0000
  F   F1        1.0  0.89210  0.95444  0.95168  1.0000
  C   C12       1.0  0.95664  0.98888  0.98283  1.0000
  C   C13       1.0  0.93285  0.03047  0.99580  1.0000
  O   O2        1.0  0.95424  0.06186  0.01099  1.0000
  N   N3        1.0  0.88761  0.03176  0.98983  1.0000
  C   C14       1.0  0.86135  0.07008  0.00034  1.0000
  C   C15       1.0  0.85623  0.07963  0.04999  1.0000
  N   N4        1.0  0.81887  0.06466  0.97800  1.0000
  C   C16       1.0  0.78733  0.03137  0.98247  1.0000
  C   C17       1.0  0.78983  0.99637  0.01314  1.0000
  C   C18       1.0  0.75579  0.96463  0.01681  1.0000
  C   C19       1.0  0.71805  0.96767  0.99010  1.0000
  C   C20       1.0  0.71433  0.00257  0.95988  1.0000
  C   C21       1.0  0.74852  0.03408  0.95643  1.0000
  C   C22       1.0  0.00241  0.98591  0.99252  1.0000
  S   S1        1.0  0.16587  0.03628  0.99515  1.0000
  C   C23       1.0  0.21735  0.01510  0.00942  1.0000
  C   C24       1.0  0.25830  0.03737  0.01415  1.0000
  H   H1        1.0  0.36788  0.01287  0.02519  1.0000
  H   H2        1.0  0.34331  0.06396  0.00966  1.0000
  H   H3        1.0  0.34313  0.04737  0.06669  1.0000
  H   H4        1.0  0.32144  0.94729  0.04336  1.0000
  H   H5        1.0  0.24862  0.90926  0.03454  1.0000
  H   H6        1.0  0.08479  0.01179  0.98187  1.0000
  H   H7        1.0  0.02326  0.88210  0.95105  1.0000
  H   H8        1.0  0.94237  0.88734  0.93404  1.0000
  H   H9        1.0  0.87128  0.00634  0.97490  1.0000
  H   H10       1.0  0.87805  0.09903  0.98548  1.0000
  H   H11       1.0  0.83358  0.10775  0.05544  1.0000
  H   H12       1.0  0.88840  0.08821  0.06494  1.0000
  H   H13       1.0  0.84327  0.05119  0.06870  1.0000
  H   H14       1.0  0.81721  0.08158  0.94878  1.0000
  H   H15       1.0  0.81853  0.99244  0.03478  1.0000
  H   H16       1.0  0.75889  0.93763  0.04078  1.0000
  H   H17       1.0  0.69159  0.94313  0.99302  1.0000
  H   H18       1.0  0.68482  0.00557  0.93911  1.0000
  H   H19       1.0  0.74439  0.06134  0.93289  1.0000
  H   H20       1.0  0.01831  0.01319  0.01034  1.0000
  H   H21       1.0  0.26046  0.07311  0.00870  1.0000
