data_image0
_chemical_formula_structural       C5NC2ONC5NCNCNONCNOC13H33
_chemical_formula_sum              "C28 N7 O3 H33"
_cell_length_a       30
_cell_length_b       30
_cell_length_c       30
_cell_angle_alpha    90
_cell_angle_beta     90
_cell_angle_gamma    90

_space_group_name_H-M_alt    "P 1"
_space_group_IT_number       1

loop_
  _space_group_symop_operation_xyz
  'x, y, z'

loop_
  _atom_site_type_symbol
  _atom_site_label
  _atom_site_symmetry_multiplicity
  _atom_site_fract_x
  _atom_site_fract_y
  _atom_site_fract_z
  _atom_site_occupancy
  C   C1        1.0  0.14265  0.15189  0.07000  1.0000
  C   C2        1.0  0.12524  0.10535  0.06462  1.0000
  C   C3        1.0  0.08977  0.09039  0.09041  1.0000
  C   C4        1.0  0.07467  0.04671  0.08574  1.0000
  C   C5        1.0  0.09407  0.01711  0.05599  1.0000
  N   N1        1.0  0.07659  0.97639  0.05388  1.0000
  C   C6        1.0  0.09400  0.94691  0.02428  1.0000
  C   C7        1.0  0.07037  0.90271  0.02328  1.0000
  O   O1        1.0  0.09239  0.86834  0.02780  1.0000
  N   N2        1.0  0.02412  0.90225  0.01640  1.0000
  C   C8        1.0  0.99994  0.86026  0.01921  1.0000
  C   C9        1.0  0.96920  0.85348  0.97891  1.0000
  C   C10       1.0  0.95303  0.89759  0.95839  1.0000
  C   C11       1.0  0.90833  0.89275  0.93453  1.0000
  C   C12       1.0  0.89696  0.93609  0.91061  1.0000
  N   N3        1.0  0.90259  0.97448  0.93915  1.0000
  C   C13       1.0  0.92834  0.97674  0.97697  1.0000
  N   N4        1.0  0.93491  0.01212  0.00088  1.0000
  C   C14       1.0  0.91803  0.05213  0.98694  1.0000
  N   N5        1.0  0.87624  0.06330  0.98867  1.0000
  O   O2        1.0  0.85027  0.02941  0.00708  1.0000
  N   N6        1.0  0.80814  0.04653  0.01839  1.0000
  C   C15       1.0  0.78973  0.02521  0.05420  1.0000
  N   N7        1.0  0.74676  0.03840  0.06170  1.0000
  O   O3        1.0  0.80714  0.99715  0.07811  1.0000
  C   C16       1.0  0.95292  0.08528  0.97079  1.0000
  C   C17       1.0  0.96425  0.11749  0.00853  1.0000
  C   C18       1.0  0.93731  0.11010  0.92927  1.0000
  C   C19       1.0  0.94997  0.93382  0.99427  1.0000
  C   C20       1.0  0.99679  0.94281  0.01289  1.0000
  C   C21       1.0  0.13032  0.95586  0.99604  1.0000
  C   C22       1.0  0.14826  0.92485  0.96507  1.0000
  C   C23       1.0  0.18408  0.93564  0.93764  1.0000
  C   C24       1.0  0.20291  0.97764  0.94045  1.0000
  C   C25       1.0  0.18571  0.00867  0.97056  1.0000
  C   C26       1.0  0.14908  0.99907  0.99893  1.0000
  C   C27       1.0  0.13034  0.03092  0.02950  1.0000
  C   C28       1.0  0.14544  0.07554  0.03488  1.0000
  H   H1        1.0  0.16786  0.15281  0.09636  1.0000
  H   H2        1.0  0.11572  0.17497  0.07862  1.0000
  H   H3        1.0  0.15760  0.16389  0.03894  1.0000
  H   H4        1.0  0.07356  0.11230  0.11430  1.0000
  H   H5        1.0  0.04664  0.03550  0.10589  1.0000
  H   H6        1.0  0.98019  0.86151  0.04995  1.0000
  H   H7        1.0  0.02257  0.83182  0.02241  1.0000
  H   H8        1.0  0.98708  0.83479  0.95304  1.0000
  H   H9        1.0  0.94104  0.83247  0.98908  1.0000
  H   H10       1.0  0.97790  0.90794  0.93348  1.0000
  H   H11       1.0  0.88209  0.88467  0.95869  1.0000
  H   H12       1.0  0.90951  0.86539  0.91033  1.0000
  H   H13       1.0  0.91852  0.94013  0.88139  1.0000
  H   H14       1.0  0.86255  0.93482  0.89844  1.0000
  H   H15       1.0  0.88342  0.00146  0.93199  1.0000
  H   H16       1.0  0.78787  0.04972  0.99183  1.0000
  H   H17       1.0  0.74082  0.07131  0.05745  1.0000
  H   H18       1.0  0.73475  0.02606  0.09074  1.0000
  H   H19       1.0  0.98321  0.06663  0.96205  1.0000
  H   H20       1.0  0.93527  0.13761  0.01803  1.0000
  H   H21       1.0  0.99105  0.14028  0.99864  1.0000
  H   H22       1.0  0.97516  0.09941  0.03831  1.0000
  H   H23       1.0  0.96377  0.13190  0.91661  1.0000
  H   H24       1.0  0.90809  0.13090  0.93596  1.0000
  H   H25       1.0  0.92830  0.08660  0.90275  1.0000
  H   H26       1.0  0.92840  0.92192  0.02144  1.0000
  H   H27       1.0  0.99385  0.95717  0.04637  1.0000
  H   H28       1.0  0.01448  0.96681  0.99175  1.0000
  H   H29       1.0  0.13439  0.89142  0.96219  1.0000
  H   H30       1.0  0.19722  0.91113  0.91442  1.0000
  H   H31       1.0  0.23109  0.98640  0.91941  1.0000
  H   H32       1.0  0.20179  0.04113  0.97131  1.0000
  H   H33       1.0  0.17341  0.08779  0.01546  1.0000
