data_image0
_chemical_formula_structural       C4SC2ONC4SO2NC4N2C2NH27
_chemical_formula_sum              "C16 S2 O3 N5 H27"
_cell_length_a       30
_cell_length_b       30
_cell_length_c       30
_cell_angle_alpha    90
_cell_angle_beta     90
_cell_angle_gamma    90

_space_group_name_H-M_alt    "P 1"
_space_group_IT_number       1

loop_
  _space_group_symop_operation_xyz
  'x, y, z'

loop_
  _atom_site_type_symbol
  _atom_site_label
  _atom_site_symmetry_multiplicity
  _atom_site_fract_x
  _atom_site_fract_y
  _atom_site_fract_z
  _atom_site_occupancy
  C   C1        1.0  0.28955  0.94552  0.01433  1.0000
  C   C2        1.0  0.24895  0.97016  0.99846  1.0000
  C   C3        1.0  0.20729  0.96009  0.01731  1.0000
  C   C4        1.0  0.16937  0.98229  0.00246  1.0000
  S   S1        1.0  0.11691  0.96940  0.02719  1.0000
  C   C5        1.0  0.08540  0.01836  0.01012  1.0000
  C   C6        1.0  0.04024  0.01861  0.03304  1.0000
  O   O1        1.0  0.03571  0.01775  0.07379  1.0000
  N   N1        1.0  0.00446  0.02144  0.00424  1.0000
  C   C7        1.0  0.95954  0.01714  0.02012  1.0000
  C   C8        1.0  0.94545  0.96803  0.01936  1.0000
  C   C9        1.0  0.90104  0.95784  0.04196  1.0000
  C   C10       1.0  0.85981  0.98390  0.02640  1.0000
  S   S2        1.0  0.84017  0.96598  0.97233  1.0000
  O   O2        1.0  0.86869  0.98272  0.93729  1.0000
  O   O3        1.0  0.83139  0.91855  0.97583  1.0000
  N   N2        1.0  0.79000  0.99073  0.96702  1.0000
  C   C11       1.0  0.78647  0.03537  0.94762  1.0000
  C   C12       1.0  0.75415  0.97884  0.99796  1.0000
  C   C13       1.0  0.86407  0.03401  0.03393  1.0000
  C   C14       1.0  0.89294  0.06098  0.00180  1.0000
  N   N3        1.0  0.93523  0.04240  0.98743  1.0000
  N   N4        1.0  0.17053  0.01281  0.96953  1.0000
  C   C15       1.0  0.21109  0.02179  0.95171  1.0000
  C   C16       1.0  0.25148  0.00343  0.96581  1.0000
  N   N5        1.0  0.29130  0.01265  0.94302  1.0000
  H   H1        1.0  0.31232  0.96844  0.03103  1.0000
  H   H2        1.0  0.28089  0.91917  0.03801  1.0000
  H   H3        1.0  0.30664  0.92976  0.98634  1.0000
  H   H4        1.0  0.20448  0.93504  0.04332  1.0000
  H   H5        1.0  0.08132  0.01806  0.97383  1.0000
  H   H6        1.0  0.10275  0.04904  0.01976  1.0000
  H   H7        1.0  0.00902  0.01372  0.97175  1.0000
  H   H8        1.0  0.95735  0.03146  0.05368  1.0000
  H   H9        1.0  0.94482  0.95555  0.98493  1.0000
  H   H10       1.0  0.97113  0.94802  0.03615  1.0000
  H   H11       1.0  0.89468  0.92196  0.03862  1.0000
  H   H12       1.0  0.90520  0.96367  0.07789  1.0000
  H   H13       1.0  0.83308  0.97255  0.04883  1.0000
  H   H14       1.0  0.81100  0.04057  0.92122  1.0000
  H   H15       1.0  0.75364  0.03937  0.93210  1.0000
  H   H16       1.0  0.79022  0.06117  0.97296  1.0000
  H   H17       1.0  0.72176  0.98431  0.98214  1.0000
  H   H18       1.0  0.75565  0.94370  0.00732  1.0000
  H   H19       1.0  0.75600  0.99919  0.02804  1.0000
  H   H20       1.0  0.87669  0.03931  0.06793  1.0000
  H   H21       1.0  0.83071  0.04888  0.03423  1.0000
  H   H22       1.0  0.89934  0.09341  0.01759  1.0000
  H   H23       1.0  0.87367  0.06861  0.97174  1.0000
  H   H24       1.0  0.95514  0.06789  0.97713  1.0000
  H   H25       1.0  0.21034  0.04575  0.92453  1.0000
  H   H26       1.0  0.31920  0.00786  0.96155  1.0000
  H   H27       1.0  0.29173  0.04274  0.92745  1.0000
