data_image0
_chemical_formula_structural       C8ON2COC4NCSC2H15
_chemical_formula_sum              "C16 O2 N3 S1 H15"
_cell_length_a       30
_cell_length_b       30
_cell_length_c       30
_cell_angle_alpha    90
_cell_angle_beta     90
_cell_angle_gamma    90

_space_group_name_H-M_alt    "P 1"
_space_group_IT_number       1

loop_
  _space_group_symop_operation_xyz
  'x, y, z'

loop_
  _atom_site_type_symbol
  _atom_site_label
  _atom_site_symmetry_multiplicity
  _atom_site_fract_x
  _atom_site_fract_y
  _atom_site_fract_z
  _atom_site_occupancy
  C   C1        1.0  0.80360  0.04100  0.03043  1.0000
  C   C2        1.0  0.84568  0.01931  0.01439  1.0000
  C   C3        1.0  0.86337  0.98248  0.03681  1.0000
  C   C4        1.0  0.90208  0.96168  0.02132  1.0000
  C   C5        1.0  0.92371  0.97700  0.98279  1.0000
  C   C6        1.0  0.96553  0.95362  0.96632  1.0000
  C   C7        1.0  0.95993  0.93527  0.91905  1.0000
  C   C8        1.0  0.00743  0.98268  0.96854  1.0000
  O   O1        1.0  0.00803  0.02364  0.96626  1.0000
  N   N1        1.0  0.04671  0.95841  0.97170  1.0000
  N   N2        1.0  0.08551  0.98324  0.98189  1.0000
  C   C9        1.0  0.11208  0.96744  0.01638  1.0000
  O   O2        1.0  0.10569  0.92975  0.03147  1.0000
  C   C10       1.0  0.14598  0.99838  0.03232  1.0000
  C   C11       1.0  0.15979  0.03903  0.01529  1.0000
  C   C12       1.0  0.19442  0.05899  0.04122  1.0000
  C   C13       1.0  0.21519  0.10090  0.03160  1.0000
  N   N3        1.0  0.23193  0.13483  0.02362  1.0000
  C   C14       1.0  0.20606  0.03302  0.07718  1.0000
  S   S1        1.0  0.17563  0.98492  0.07947  1.0000
  C   C15       1.0  0.90555  0.01369  0.96024  1.0000
  C   C16       1.0  0.86688  0.03450  0.97577  1.0000
  H   H1        1.0  0.80063  0.03840  0.06672  1.0000
  H   H2        1.0  0.80327  0.07654  0.02208  1.0000
  H   H3        1.0  0.77467  0.02499  0.01505  1.0000
  H   H4        1.0  0.84715  0.96974  0.06663  1.0000
  H   H5        1.0  0.91499  0.93323  0.03972  1.0000
  H   H6        1.0  0.97147  0.92491  0.98829  1.0000
  H   H7        1.0  0.95672  0.96205  0.89443  1.0000
  H   H8        1.0  0.98888  0.91522  0.90934  1.0000
  H   H9        1.0  0.93029  0.91408  0.91660  1.0000
  H   H10       1.0  0.04632  0.92698  0.98478  1.0000
  H   H11       1.0  0.08234  0.01664  0.97654  1.0000
  H   H12       1.0  0.14620  0.05410  0.98538  1.0000
  H   H13       1.0  0.23107  0.03966  0.10234  1.0000
  H   H14       1.0  0.92163  0.02682  0.93049  1.0000
  H   H15       1.0  0.85358  0.06289  0.95754  1.0000
