data_image0
_chemical_formula_structural       C2NC3NCOC2NC10SH25
_chemical_formula_sum              "C18 N3 O1 S1 H25"
_cell_length_a       30
_cell_length_b       30
_cell_length_c       30
_cell_angle_alpha    90
_cell_angle_beta     90
_cell_angle_gamma    90

_space_group_name_H-M_alt    "P 1"
_space_group_IT_number       1

loop_
  _space_group_symop_operation_xyz
  'x, y, z'

loop_
  _atom_site_type_symbol
  _atom_site_label
  _atom_site_symmetry_multiplicity
  _atom_site_fract_x
  _atom_site_fract_y
  _atom_site_fract_z
  _atom_site_occupancy
  C   C1        1.0  0.27962  0.04341  0.03243  1.0000
  C   C2        1.0  0.24121  0.01586  0.01741  1.0000
  N   N1        1.0  0.19922  0.02728  0.02241  1.0000
  C   C3        1.0  0.17168  0.99451  0.00500  1.0000
  C   C4        1.0  0.12458  0.99538  0.00450  1.0000
  C   C5        1.0  0.10059  0.96001  0.98582  1.0000
  N   N2        1.0  0.05362  0.95823  0.98395  1.0000
  C   C6        1.0  0.02350  0.98956  0.99976  1.0000
  O   O1        1.0  0.03263  0.02486  0.01814  1.0000
  C   C7        1.0  0.97573  0.97529  0.99082  1.0000
  C   C8        1.0  0.94226  0.00721  0.01250  1.0000
  N   N3        1.0  0.89580  0.99249  0.00495  1.0000
  C   C9        1.0  0.86355  0.01120  0.03720  1.0000
  C   C10       1.0  0.87339  0.99901  0.08586  1.0000
  C   C11       1.0  0.85742  0.06184  0.03185  1.0000
  C   C12       1.0  0.85254  0.07589  0.98306  1.0000
  C   C13       1.0  0.84413  0.03583  0.95302  1.0000
  C   C14       1.0  0.88149  0.00084  0.95824  1.0000
  C   C15       1.0  0.86667  0.95643  0.93794  1.0000
  C   C16       1.0  0.12375  0.92385  0.96767  1.0000
  C   C17       1.0  0.17040  0.92211  0.96773  1.0000
  C   C18       1.0  0.19371  0.95791  0.98664  1.0000
  S   S1        1.0  0.25035  0.96558  0.99176  1.0000
  H   H1        1.0  0.26793  0.07491  0.04665  1.0000
  H   H2        1.0  0.29881  0.02594  0.05808  1.0000
  H   H3        1.0  0.30175  0.05125  0.00450  1.0000
  H   H4        1.0  0.10847  0.02425  0.01902  1.0000
  H   H5        1.0  0.04038  0.93070  0.96957  1.0000
  H   H6        1.0  0.97101  0.94159  0.00422  1.0000
  H   H7        1.0  0.97129  0.97394  0.95460  1.0000
  H   H8        1.0  0.94734  0.04144  0.00064  1.0000
  H   H9        1.0  0.95003  0.00756  0.04815  1.0000
  H   H10       1.0  0.83136  0.99513  0.03023  1.0000
  H   H11       1.0  0.84450  0.00682  0.10680  1.0000
  H   H12       1.0  0.88004  0.96327  0.08929  1.0000
  H   H13       1.0  0.90177  0.01744  0.09948  1.0000
  H   H14       1.0  0.82750  0.07208  0.05024  1.0000
  H   H15       1.0  0.88533  0.08012  0.04682  1.0000
  H   H16       1.0  0.82549  0.10021  0.97968  1.0000
  H   H17       1.0  0.88310  0.09285  0.97228  1.0000
  H   H18       1.0  0.84244  0.04681  0.91819  1.0000
  H   H19       1.0  0.81145  0.02137  0.96087  1.0000
  H   H20       1.0  0.90969  0.01283  0.93824  1.0000
  H   H21       1.0  0.83807  0.94239  0.95581  1.0000
  H   H22       1.0  0.89369  0.93188  0.93887  1.0000
  H   H23       1.0  0.85699  0.96085  0.90301  1.0000
  H   H24       1.0  0.10579  0.89597  0.95298  1.0000
  H   H25       1.0  0.18795  0.89382  0.95355  1.0000
