data_image0
_chemical_formula_structural       C3SC8BrCH13
_chemical_formula_sum              "C12 S1 Br1 H13"
_cell_length_a       30
_cell_length_b       30
_cell_length_c       30
_cell_angle_alpha    90
_cell_angle_beta     90
_cell_angle_gamma    90

_space_group_name_H-M_alt    "P 1"
_space_group_IT_number       1

loop_
  _space_group_symop_operation_xyz
  'x, y, z'

loop_
  _atom_site_type_symbol
  _atom_site_label
  _atom_site_symmetry_multiplicity
  _atom_site_fract_x
  _atom_site_fract_y
  _atom_site_fract_z
  _atom_site_occupancy
  C   C1        1.0  0.87120  0.01352  0.02042  1.0000
  C   C2        1.0  0.91342  0.00732  0.99498  1.0000
  C   C3        1.0  0.91720  0.00836  0.95067  1.0000
  S   S1        1.0  0.97098  0.00155  0.93176  1.0000
  C   C4        1.0  0.99361  0.98379  0.98743  1.0000
  C   C5        1.0  0.99514  0.93246  0.98507  1.0000
  C   C6        1.0  0.04058  0.00215  0.99805  1.0000
  C   C7        1.0  0.06744  0.02026  0.96371  1.0000
  C   C8        1.0  0.11016  0.03732  0.97147  1.0000
  C   C9        1.0  0.12806  0.03645  0.01399  1.0000
  C   C10       1.0  0.10332  0.01800  0.04851  1.0000
  C   C11       1.0  0.06038  0.00073  0.04089  1.0000
  Br  Br1       1.0  0.03369  0.97472  0.09234  1.0000
  C   C12       1.0  0.95649  0.00041  0.01976  1.0000
  H   H1        1.0  0.87390  0.04232  0.04265  1.0000
  H   H2        1.0  0.84276  0.01910  0.99824  1.0000
  H   H3        1.0  0.86407  0.98395  0.04056  1.0000
  H   H4        1.0  0.88973  0.01372  0.92786  1.0000
  H   H5        1.0  0.96249  0.91797  0.97730  1.0000
  H   H6        1.0  0.01890  0.92092  0.95977  1.0000
  H   H7        1.0  0.00568  0.91769  0.01671  1.0000
  H   H8        1.0  0.05593  0.02154  0.92935  1.0000
  H   H9        1.0  0.12929  0.05115  0.94395  1.0000
  H   H10       1.0  0.16122  0.04962  0.02020  1.0000
  H   H11       1.0  0.11803  0.01687  0.08165  1.0000
  H   H12       1.0  0.95064  0.97596  0.04626  1.0000
  H   H13       1.0  0.96569  0.03215  0.03548  1.0000
