data_image0
_chemical_formula_structural       C2NC3NC4NC2OH21
_chemical_formula_sum              "C11 N3 O1 H21"
_cell_length_a       30
_cell_length_b       30
_cell_length_c       30
_cell_angle_alpha    90
_cell_angle_beta     90
_cell_angle_gamma    90

_space_group_name_H-M_alt    "P 1"
_space_group_IT_number       1

loop_
  _space_group_symop_operation_xyz
  'x, y, z'

loop_
  _atom_site_type_symbol
  _atom_site_label
  _atom_site_symmetry_multiplicity
  _atom_site_fract_x
  _atom_site_fract_y
  _atom_site_fract_z
  _atom_site_occupancy
  C   C1        1.0  0.13424  0.04434  0.02394  1.0000
  C   C2        1.0  0.09134  0.03311  0.00120  1.0000
  N   N1        1.0  0.07389  0.99425  0.00401  1.0000
  C   C3        1.0  0.03233  0.98503  0.98038  1.0000
  C   C4        1.0  0.00386  0.02728  0.97800  1.0000
  C   C5        1.0  0.98570  0.04135  0.02387  1.0000
  N   N2        1.0  0.94160  0.06199  0.01885  1.0000
  C   C6        1.0  0.90508  0.03044  0.02723  1.0000
  C   C7        1.0  0.90017  0.99107  0.99479  1.0000
  C   C8        1.0  0.92534  0.94829  0.00758  1.0000
  C   C9        1.0  0.96603  0.93615  0.97873  1.0000
  N   N3        1.0  0.00833  0.94730  0.00107  1.0000
  C   C10       1.0  0.03716  0.90787  0.00364  1.0000
  C   C11       1.0  0.03254  0.06344  0.95706  1.0000
  O   O1        1.0  0.07449  0.06866  0.97924  1.0000
  H   H1        1.0  0.14862  0.01457  0.03929  1.0000
  H   H2        1.0  0.15791  0.05761  0.99961  1.0000
  H   H3        1.0  0.12808  0.06921  0.04986  1.0000
  H   H4        1.0  0.04129  0.97524  0.94620  1.0000
  H   H5        1.0  0.97624  0.02181  0.95483  1.0000
  H   H6        1.0  0.98453  0.01424  0.04828  1.0000
  H   H7        1.0  0.00788  0.06637  0.03869  1.0000
  H   H8        1.0  0.93891  0.08677  0.04205  1.0000
  H   H9        1.0  0.90628  0.01856  0.06179  1.0000
  H   H10       1.0  0.87435  0.05013  0.02470  1.0000
  H   H11       1.0  0.90680  0.00119  0.96036  1.0000
  H   H12       1.0  0.86455  0.98241  0.99512  1.0000
  H   H13       1.0  0.90151  0.92075  0.00351  1.0000
  H   H14       1.0  0.93380  0.94800  0.04315  1.0000
  H   H15       1.0  0.96355  0.95001  0.94500  1.0000
  H   H16       1.0  0.96419  0.89992  0.97347  1.0000
  H   H17       1.0  0.04774  0.89650  0.97057  1.0000
  H   H18       1.0  0.06690  0.91416  0.02386  1.0000
  H   H19       1.0  0.01972  0.88037  0.02023  1.0000
  H   H20       1.0  0.03958  0.05590  0.92200  1.0000
  H   H21       1.0  0.01547  0.09570  0.95784  1.0000
