data_image0
_chemical_formula_structural       C3NCNCOC3NC2NCNCN2C4OCOC6H23
_chemical_formula_sum              "C23 N7 O3 H23"
_cell_length_a       30
_cell_length_b       30
_cell_length_c       30
_cell_angle_alpha    90
_cell_angle_beta     90
_cell_angle_gamma    90

_space_group_name_H-M_alt    "P 1"
_space_group_IT_number       1

loop_
  _space_group_symop_operation_xyz
  'x, y, z'

loop_
  _atom_site_type_symbol
  _atom_site_label
  _atom_site_symmetry_multiplicity
  _atom_site_fract_x
  _atom_site_fract_y
  _atom_site_fract_z
  _atom_site_occupancy
  C   C1        1.0  0.83783  0.90956  0.94976  1.0000
  C   C2        1.0  0.88123  0.93266  0.95781  1.0000
  C   C3        1.0  0.92032  0.91709  0.93896  1.0000
  N   N1        1.0  0.96060  0.93622  0.94500  1.0000
  C   C4        1.0  0.96346  0.97315  0.97045  1.0000
  N   N2        1.0  0.00540  0.99364  0.97609  1.0000
  C   C5        1.0  0.04532  0.97832  0.95890  1.0000
  O   O1        1.0  0.05150  0.94440  0.93705  1.0000
  C   C6        1.0  0.08352  0.00924  0.97102  1.0000
  C   C7        1.0  0.12784  0.99493  0.94952  1.0000
  C   C8        1.0  0.12945  0.00669  0.89975  1.0000
  N   N3        1.0  0.16573  0.01391  0.97411  1.0000
  C   C9        1.0  0.21013  0.00124  0.96506  1.0000
  C   C10       1.0  0.22333  0.95332  0.95974  1.0000
  N   N4        1.0  0.23998  0.03351  0.96047  1.0000
  C   C11       1.0  0.21475  0.07059  0.96622  1.0000
  N   N5        1.0  0.21833  0.11389  0.96974  1.0000
  C   C12       1.0  0.17512  0.12585  0.98042  1.0000
  N   N6        1.0  0.14532  0.09240  0.98344  1.0000
  N   N7        1.0  0.17161  0.05877  0.97211  1.0000
  C   C13       1.0  0.92602  0.99163  0.99133  1.0000
  C   C14       1.0  0.92869  0.03148  0.01789  1.0000
  C   C15       1.0  0.92937  0.06422  0.04092  1.0000
  C   C16       1.0  0.92852  0.10355  0.06979  1.0000
  O   O2        1.0  0.90455  0.09408  0.10968  1.0000
  C   C17       1.0  0.88493  0.96986  0.98561  1.0000
  O   O3        1.0  0.84650  0.98581  0.00522  1.0000
  C   C18       1.0  0.84172  0.98027  0.05068  1.0000
  C   C19       1.0  0.86352  0.94776  0.07603  1.0000
  C   C20       1.0  0.85613  0.94532  0.12197  1.0000
  C   C21       1.0  0.82664  0.97488  0.14254  1.0000
  C   C22       1.0  0.80432  0.00686  0.11722  1.0000
  C   C23       1.0  0.81176  0.00944  0.07136  1.0000
  H   H1        1.0  0.83969  0.88768  0.92052  1.0000
  H   H2        1.0  0.81133  0.93379  0.94322  1.0000
  H   H3        1.0  0.82875  0.88930  0.97869  1.0000
  H   H4        1.0  0.92078  0.88776  0.91763  1.0000
  H   H5        1.0  0.00599  0.02173  0.99470  1.0000
  H   H6        1.0  0.07447  0.04313  0.96070  1.0000
  H   H7        1.0  0.08656  0.00891  0.00748  1.0000
  H   H8        1.0  0.13064  0.95857  0.95236  1.0000
  H   H9        1.0  0.12847  0.04281  0.89423  1.0000
  H   H10       1.0  0.16008  0.99412  0.88429  1.0000
  H   H11       1.0  0.10127  0.99210  0.88172  1.0000
  H   H12       1.0  0.20657  0.93305  0.98502  1.0000
  H   H13       1.0  0.25941  0.94968  0.96356  1.0000
  H   H14       1.0  0.21367  0.94171  0.92658  1.0000
  H   H15       1.0  0.16545  0.16008  0.98657  1.0000
  H   H16       1.0  0.91202  0.13160  0.05317  1.0000
  H   H17       1.0  0.96240  0.11377  0.07886  1.0000
  H   H18       1.0  0.91306  0.06418  0.11915  1.0000
  H   H19       1.0  0.88625  0.92401  0.06081  1.0000
  H   H20       1.0  0.87327  0.92018  0.14172  1.0000
  H   H21       1.0  0.82090  0.97297  0.17828  1.0000
  H   H22       1.0  0.78108  0.02979  0.13313  1.0000
  H   H23       1.0  0.79447  0.03456  0.05173  1.0000
