data_image0
_chemical_formula_structural       C4ONC2ONC5FC8SCNOH28
_chemical_formula_sum              "C20 O3 N3 F1 S1 H28"
_cell_length_a       30
_cell_length_b       30
_cell_length_c       30
_cell_angle_alpha    90
_cell_angle_beta     90
_cell_angle_gamma    90

_space_group_name_H-M_alt    "P 1"
_space_group_IT_number       1

loop_
  _space_group_symop_operation_xyz
  'x, y, z'

loop_
  _atom_site_type_symbol
  _atom_site_label
  _atom_site_symmetry_multiplicity
  _atom_site_fract_x
  _atom_site_fract_y
  _atom_site_fract_z
  _atom_site_occupancy
  C   C1        1.0  0.76722  0.94652  0.00868  1.0000
  C   C2        1.0  0.78103  0.97818  0.97366  1.0000
  C   C3        1.0  0.80901  0.01460  0.97260  1.0000
  C   C4        1.0  0.83427  0.03262  0.00931  1.0000
  O   O1        1.0  0.82068  0.06627  0.02819  1.0000
  N   N1        1.0  0.87337  0.00938  0.02140  1.0000
  C   C5        1.0  0.89608  0.97609  0.99068  1.0000
  C   C6        1.0  0.93470  0.99368  0.96015  1.0000
  O   O2        1.0  0.92738  0.01946  0.92914  1.0000
  N   N2        1.0  0.97769  0.98296  0.97372  1.0000
  C   C7        1.0  0.01690  0.01190  0.96811  1.0000
  C   C8        1.0  0.03764  0.02758  0.01366  1.0000
  C   C9        1.0  0.08131  0.02228  0.02374  1.0000
  C   C10       1.0  0.11639  0.00382  0.99611  1.0000
  C   C11       1.0  0.15835  0.99787  0.01077  1.0000
  F   F1        1.0  0.16722  0.00952  0.05362  1.0000
  C   C12       1.0  0.19748  0.97907  0.98429  1.0000
  C   C13       1.0  0.21379  0.93658  0.00799  1.0000
  C   C14       1.0  0.23521  0.01386  0.98441  1.0000
  C   C15       1.0  0.18654  0.96728  0.93552  1.0000
  C   C16       1.0  0.00832  0.05047  0.05225  1.0000
  C   C17       1.0  0.95926  0.03512  0.04786  1.0000
  C   C18       1.0  0.96742  0.98542  0.06340  1.0000
  C   C19       1.0  0.94580  0.07070  0.01167  1.0000
  S   S1        1.0  0.90271  0.03326  0.07085  1.0000
  C   C20       1.0  0.80507  0.03062  0.92865  1.0000
  N   N3        1.0  0.77821  0.00509  0.90394  1.0000
  O   O3        1.0  0.76280  0.97222  0.93252  1.0000
  H   H1        1.0  0.79578  0.93671  0.02917  1.0000
  H   H2        1.0  0.74220  0.96177  0.03041  1.0000
  H   H3        1.0  0.75287  0.91621  0.99426  1.0000
  H   H4        1.0  0.90601  0.94661  0.00943  1.0000
  H   H5        1.0  0.87158  0.96293  0.96709  1.0000
  H   H6        1.0  0.98276  0.95335  0.98895  1.0000
  H   H7        1.0  0.00895  0.04052  0.94702  1.0000
  H   H8        1.0  0.04045  0.99147  0.94928  1.0000
  H   H9        1.0  0.09266  0.03365  0.05642  1.0000
  H   H10       1.0  0.10827  0.99501  0.96209  1.0000
  H   H11       1.0  0.24280  0.92228  0.99099  1.0000
  H   H12       1.0  0.18768  0.91101  0.00876  1.0000
  H   H13       1.0  0.22363  0.94337  0.04253  1.0000
  H   H14       1.0  0.22475  0.04476  0.96788  1.0000
  H   H15       1.0  0.24554  0.02244  0.01842  1.0000
  H   H16       1.0  0.26472  0.00136  0.96684  1.0000
  H   H17       1.0  0.21590  0.95388  0.91838  1.0000
  H   H18       1.0  0.17555  0.99667  0.91679  1.0000
  H   H19       1.0  0.16029  0.94196  0.93337  1.0000
  H   H20       1.0  0.02198  0.04170  0.08512  1.0000
  H   H21       1.0  0.01251  0.08678  0.04976  1.0000
  H   H22       1.0  0.94158  0.96034  0.05890  1.0000
  H   H23       1.0  0.97302  0.98558  0.09983  1.0000
  H   H24       1.0  0.99788  0.96938  0.05137  1.0000
  H   H25       1.0  0.94119  0.10310  0.02856  1.0000
  H   H26       1.0  0.91544  0.06683  0.99214  1.0000
  H   H27       1.0  0.97131  0.07857  0.98698  1.0000
  H   H28       1.0  0.82084  0.05933  0.91351  1.0000
