data_image0
_chemical_formula_structural       C7SO2NC11NCNOH21
_chemical_formula_sum              "C19 S1 O3 N3 H21"
_cell_length_a       30
_cell_length_b       30
_cell_length_c       30
_cell_angle_alpha    90
_cell_angle_beta     90
_cell_angle_gamma    90

_space_group_name_H-M_alt    "P 1"
_space_group_IT_number       1

loop_
  _space_group_symop_operation_xyz
  'x, y, z'

loop_
  _atom_site_type_symbol
  _atom_site_label
  _atom_site_symmetry_multiplicity
  _atom_site_fract_x
  _atom_site_fract_y
  _atom_site_fract_z
  _atom_site_occupancy
  C   C1        1.0  0.10883  0.99929  0.11047  1.0000
  C   C2        1.0  0.11259  0.01548  0.06321  1.0000
  C   C3        1.0  0.15523  0.01666  0.04375  1.0000
  C   C4        1.0  0.16153  0.03217  0.00032  1.0000
  C   C5        1.0  0.12542  0.04739  0.97559  1.0000
  C   C6        1.0  0.08290  0.04699  0.99425  1.0000
  C   C7        1.0  0.07620  0.03069  0.03767  1.0000
  S   S1        1.0  0.02042  0.03183  0.05865  1.0000
  O   O1        1.0  0.99433  0.06162  0.03110  1.0000
  O   O2        1.0  0.02207  0.03834  0.10642  1.0000
  N   N1        1.0  0.00009  0.97893  0.05137  1.0000
  C   C8        1.0  0.01927  0.95175  0.01705  1.0000
  C   C9        1.0  0.05174  0.91652  0.03202  1.0000
  C   C10       1.0  0.00293  0.95710  0.97547  1.0000
  C   C11       1.0  0.96636  0.98795  0.95928  1.0000
  C   C12       1.0  0.92066  0.98390  0.98260  1.0000
  C   C13       1.0  0.90137  0.93667  0.97914  1.0000
  C   C14       1.0  0.88898  0.01814  0.96276  1.0000
  C   C15       1.0  0.88353  0.05942  0.98340  1.0000
  C   C16       1.0  0.85528  0.09072  0.96403  1.0000
  C   C17       1.0  0.83344  0.08023  0.92459  1.0000
  C   C18       1.0  0.84096  0.03870  0.90599  1.0000
  N   N2        1.0  0.86823  0.00770  0.92398  1.0000
  C   C19       1.0  0.02139  0.93052  0.94089  1.0000
  N   N3        1.0  0.02270  0.91787  0.90120  1.0000
  O   O3        1.0  0.05306  0.90158  0.93562  1.0000
  H   H1        1.0  0.13904  0.98156  0.12079  1.0000
  H   H2        1.0  0.08135  0.97566  0.11425  1.0000
  H   H3        1.0  0.10431  0.02749  0.13316  1.0000
  H   H4        1.0  0.18426  0.00556  0.06252  1.0000
  H   H5        1.0  0.19482  0.03273  0.98597  1.0000
  H   H6        1.0  0.13039  0.05987  0.94192  1.0000
  H   H7        1.0  0.05511  0.05956  0.97458  1.0000
  H   H8        1.0  0.00054  0.96483  0.08247  1.0000
  H   H9        1.0  0.08543  0.92421  0.02034  1.0000
  H   H10       1.0  0.05291  0.91407  0.06841  1.0000
  H   H11       1.0  0.04199  0.88354  0.01982  1.0000
  H   H12       1.0  0.97857  0.02233  0.96090  1.0000
  H   H13       1.0  0.96101  0.98243  0.92341  1.0000
  H   H14       1.0  0.92381  0.99136  0.01820  1.0000
  H   H15       1.0  0.86783  0.93523  0.99354  1.0000
  H   H16       1.0  0.89906  0.92550  0.94444  1.0000
  H   H17       1.0  0.92208  0.91265  0.99720  1.0000
  H   H18       1.0  0.90127  0.06742  0.01394  1.0000
  H   H19       1.0  0.85060  0.12308  0.97958  1.0000
  H   H20       1.0  0.81126  0.10388  0.90865  1.0000
  H   H21       1.0  0.82484  0.02892  0.87508  1.0000
