data_image0
_chemical_formula_structural       C2N2C7NC4OC6NH16
_chemical_formula_sum              "C19 N4 O1 H16"
_cell_length_a       30
_cell_length_b       30
_cell_length_c       30
_cell_angle_alpha    90
_cell_angle_beta     90
_cell_angle_gamma    90

_space_group_name_H-M_alt    "P 1"
_space_group_IT_number       1

loop_
  _space_group_symop_operation_xyz
  'x, y, z'

loop_
  _atom_site_type_symbol
  _atom_site_label
  _atom_site_symmetry_multiplicity
  _atom_site_fract_x
  _atom_site_fract_y
  _atom_site_fract_z
  _atom_site_occupancy
  C   C1        1.0  0.96443  0.12348  0.96315  1.0000
  C   C2        1.0  0.96048  0.07517  0.97165  1.0000
  N   N1        1.0  0.92365  0.05681  0.98842  1.0000
  N   N2        1.0  0.93540  0.01312  0.99234  1.0000
  C   C3        1.0  0.90638  0.98241  0.01405  1.0000
  C   C4        1.0  0.86181  0.99472  0.02145  1.0000
  C   C5        1.0  0.83242  0.96539  0.04250  1.0000
  C   C6        1.0  0.84732  0.92381  0.05678  1.0000
  C   C7        1.0  0.89169  0.91165  0.05038  1.0000
  C   C8        1.0  0.92128  0.94082  0.02926  1.0000
  C   C9        1.0  0.97752  0.00690  0.97303  1.0000
  N   N3        1.0  0.99548  0.96595  0.96453  1.0000
  C   C10       1.0  0.03737  0.95758  0.94648  1.0000
  C   C11       1.0  0.03858  0.92352  0.90942  1.0000
  C   C12       1.0  0.07434  0.97712  0.96225  1.0000
  C   C13       1.0  0.12225  0.97451  0.94971  1.0000
  O   O1        1.0  0.14510  0.95535  0.92258  1.0000
  C   C14       1.0  0.13297  0.00527  0.98500  1.0000
  C   C15       1.0  0.16732  0.02714  0.00544  1.0000
  C   C16       1.0  0.15498  0.05395  0.04157  1.0000
  C   C17       1.0  0.10974  0.05728  0.05525  1.0000
  C   C18       1.0  0.07578  0.03399  0.03316  1.0000
  C   C19       1.0  0.08943  0.00872  0.99812  1.0000
  N   N4        1.0  0.99396  0.04609  0.96211  1.0000
  H   H1        1.0  0.94141  0.13373  0.93678  1.0000
  H   H2        1.0  0.95676  0.14253  0.99330  1.0000
  H   H3        1.0  0.99829  0.13211  0.95266  1.0000
  H   H4        1.0  0.84928  0.02703  0.01063  1.0000
  H   H5        1.0  0.79791  0.97513  0.04782  1.0000
  H   H6        1.0  0.82446  0.90107  0.07332  1.0000
  H   H7        1.0  0.90344  0.87952  0.06238  1.0000
  H   H8        1.0  0.95592  0.93055  0.02696  1.0000
  H   H9        1.0  0.97285  0.94263  0.95462  1.0000
  H   H10       1.0  0.02517  0.89165  0.92116  1.0000
  H   H11       1.0  0.01820  0.93489  0.88134  1.0000
  H   H12       1.0  0.07221  0.91734  0.89685  1.0000
  H   H13       1.0  0.20151  0.02380  0.99446  1.0000
  H   H14       1.0  0.18035  0.07256  0.05963  1.0000
  H   H15       1.0  0.10133  0.07843  0.08352  1.0000
  H   H16       1.0  0.04128  0.03630  0.04331  1.0000
