data_image0
_chemical_formula_structural       C5NCOC4NCO2CF3C2SCO2H17
_chemical_formula_sum              "C15 N2 O5 F3 S1 H17"
_cell_length_a       30
_cell_length_b       30
_cell_length_c       30
_cell_angle_alpha    90
_cell_angle_beta     90
_cell_angle_gamma    90

_space_group_name_H-M_alt    "P 1"
_space_group_IT_number       1

loop_
  _space_group_symop_operation_xyz
  'x, y, z'

loop_
  _atom_site_type_symbol
  _atom_site_label
  _atom_site_symmetry_multiplicity
  _atom_site_fract_x
  _atom_site_fract_y
  _atom_site_fract_z
  _atom_site_occupancy
  C   C1        1.0  0.16440  0.07953  0.02542  1.0000
  C   C2        1.0  0.12241  0.05436  0.01480  1.0000
  C   C3        1.0  0.08517  0.06111  0.04230  1.0000
  C   C4        1.0  0.04437  0.04010  0.03374  1.0000
  C   C5        1.0  0.03945  0.01215  0.99704  1.0000
  N   N1        1.0  0.99943  0.99029  0.98561  1.0000
  C   C6        1.0  0.95917  0.99149  0.00850  1.0000
  O   O1        1.0  0.95234  0.01035  0.04420  1.0000
  C   C7        1.0  0.92300  0.96272  0.98569  1.0000
  C   C8        1.0  0.92880  0.91390  0.99989  1.0000
  C   C9        1.0  0.88143  0.89753  0.00867  1.0000
  C   C10       1.0  0.85765  0.93888  0.02568  1.0000
  N   N2        1.0  0.87827  0.97449  0.00051  1.0000
  C   C11       1.0  0.85906  0.01425  0.98859  1.0000
  O   O2        1.0  0.87742  0.04087  0.96373  1.0000
  O   O3        1.0  0.81850  0.01934  0.00694  1.0000
  C   C12       1.0  0.79889  0.06014  0.99481  1.0000
  F   F1        1.0  0.82309  0.09519  0.00905  1.0000
  F   F2        1.0  0.79214  0.06254  0.95043  1.0000
  F   F3        1.0  0.75845  0.06246  0.01478  1.0000
  C   C13       1.0  0.07618  0.00525  0.96918  1.0000
  C   C14       1.0  0.11742  0.02578  0.97804  1.0000
  S   S1        1.0  0.16194  0.01438  0.94009  1.0000
  C   C15       1.0  0.19405  0.97346  0.96824  1.0000
  O   O4        1.0  0.14267  0.99307  0.90112  1.0000
  O   O5        1.0  0.18858  0.05437  0.93519  1.0000
  H   H1        1.0  0.19358  0.05775  0.02458  1.0000
  H   H2        1.0  0.16879  0.10719  0.00205  1.0000
  H   H3        1.0  0.16317  0.09368  0.05907  1.0000
  H   H4        1.0  0.08726  0.08339  0.07091  1.0000
  H   H5        1.0  0.01689  0.04709  0.05624  1.0000
  H   H6        1.0  0.99992  0.97298  0.95663  1.0000
  H   H7        1.0  0.92463  0.96678  0.94941  1.0000
  H   H8        1.0  0.94860  0.91109  0.03051  1.0000
  H   H9        1.0  0.94556  0.89412  0.97421  1.0000
  H   H10       1.0  0.86636  0.88652  0.97723  1.0000
  H   H11       1.0  0.88014  0.86979  0.03226  1.0000
  H   H12       1.0  0.86458  0.94469  0.06105  1.0000
  H   H13       1.0  0.82160  0.93752  0.02049  1.0000
  H   H14       1.0  0.07280  0.98380  0.94013  1.0000
  H   H15       1.0  0.17307  0.94446  0.97481  1.0000
  H   H16       1.0  0.20705  0.98718  0.99927  1.0000
  H   H17       1.0  0.22168  0.96397  0.94651  1.0000
