data_image0
_chemical_formula_structural       C5SC8NCOH17
_chemical_formula_sum              "C14 S1 N1 O1 H17"
_cell_length_a       30
_cell_length_b       30
_cell_length_c       30
_cell_angle_alpha    90
_cell_angle_beta     90
_cell_angle_gamma    90

_space_group_name_H-M_alt    "P 1"
_space_group_IT_number       1

loop_
  _space_group_symop_operation_xyz
  'x, y, z'

loop_
  _atom_site_type_symbol
  _atom_site_label
  _atom_site_symmetry_multiplicity
  _atom_site_fract_x
  _atom_site_fract_y
  _atom_site_fract_z
  _atom_site_occupancy
  C   C1        1.0  0.86869  0.02332  0.92522  1.0000
  C   C2        1.0  0.87831  0.03600  0.97168  1.0000
  C   C3        1.0  0.90431  0.01847  0.00545  1.0000
  C   C4        1.0  0.93259  0.97731  0.00509  1.0000
  C   C5        1.0  0.94121  0.95800  0.05135  1.0000
  S   S1        1.0  0.98444  0.98627  0.97353  1.0000
  C   C6        1.0  0.01366  0.02657  0.00895  1.0000
  C   C7        1.0  0.04928  0.00534  0.03880  1.0000
  C   C8        1.0  0.09010  0.98927  0.01406  1.0000
  C   C9        1.0  0.12266  0.01962  0.99985  1.0000
  C   C10       1.0  0.16032  0.00482  0.97688  1.0000
  C   C11       1.0  0.16577  0.95959  0.96784  1.0000
  C   C12       1.0  0.13357  0.92913  0.98174  1.0000
  C   C13       1.0  0.09590  0.94387  0.00474  1.0000
  N   N1        1.0  0.90089  0.04553  0.04261  1.0000
  C   C14       1.0  0.87369  0.07739  0.02990  1.0000
  O   O1        1.0  0.85857  0.07396  0.98733  1.0000
  H   H1        1.0  0.83497  0.03345  0.91566  1.0000
  H   H2        1.0  0.89232  0.03940  0.90257  1.0000
  H   H3        1.0  0.87122  0.98722  0.92070  1.0000
  H   H4        1.0  0.91440  0.95176  0.98628  1.0000
  H   H5        1.0  0.95764  0.98179  0.07363  1.0000
  H   H6        1.0  0.90961  0.94885  0.06729  1.0000
  H   H7        1.0  0.96163  0.92778  0.04958  1.0000
  H   H8        1.0  0.98978  0.04479  0.02956  1.0000
  H   H9        1.0  0.02896  0.05115  0.98668  1.0000
  H   H10       1.0  0.06028  0.03031  0.06321  1.0000
  H   H11       1.0  0.03527  0.97810  0.05872  1.0000
  H   H12       1.0  0.11889  0.05504  0.00660  1.0000
  H   H13       1.0  0.18537  0.02860  0.96598  1.0000
  H   H14       1.0  0.19504  0.94808  0.94989  1.0000
  H   H15       1.0  0.13769  0.89387  0.97456  1.0000
  H   H16       1.0  0.07095  0.91971  0.01511  1.0000
  H   H17       1.0  0.86201  0.10565  0.04894  1.0000
