data_image0
_chemical_formula_structural       C4SO2N2COC2NC9BrH14
_chemical_formula_sum              "C16 S1 O3 N3 Br1 H14"
_cell_length_a       30
_cell_length_b       30
_cell_length_c       30
_cell_angle_alpha    90
_cell_angle_beta     90
_cell_angle_gamma    90

_space_group_name_H-M_alt    "P 1"
_space_group_IT_number       1

loop_
  _space_group_symop_operation_xyz
  'x, y, z'

loop_
  _atom_site_type_symbol
  _atom_site_label
  _atom_site_symmetry_multiplicity
  _atom_site_fract_x
  _atom_site_fract_y
  _atom_site_fract_z
  _atom_site_occupancy
  C   C1        1.0  0.80502  0.99564  0.04506  1.0000
  C   C2        1.0  0.83072  0.02136  0.01068  1.0000
  C   C3        1.0  0.87348  0.00673  0.99842  1.0000
  C   C4        1.0  0.89815  0.03022  0.96655  1.0000
  S   S1        1.0  0.95194  0.01108  0.95160  1.0000
  O   O1        1.0  0.96301  0.02807  0.90781  1.0000
  O   O2        1.0  0.95457  0.96399  0.96163  1.0000
  N   N1        1.0  0.98434  0.03875  0.98945  1.0000
  N   N2        1.0  0.03177  0.02127  0.99427  1.0000
  C   C5        1.0  0.04412  0.00583  0.03598  1.0000
  O   O3        1.0  0.01967  0.01103  0.06858  1.0000
  C   C6        1.0  0.08686  0.98294  0.03815  1.0000
  C   C7        1.0  0.09770  0.95338  0.07200  1.0000
  N   N3        1.0  0.13969  0.93751  0.06468  1.0000
  C   C8        1.0  0.15753  0.95679  0.02720  1.0000
  C   C9        1.0  0.19965  0.95092  0.00788  1.0000
  C   C10       1.0  0.20974  0.97552  0.96960  1.0000
  C   C11       1.0  0.17905  0.00526  0.95174  1.0000
  C   C12       1.0  0.13703  0.01083  0.97146  1.0000
  C   C13       1.0  0.12540  0.98581  0.00966  1.0000
  C   C14       1.0  0.88041  0.06774  0.94563  1.0000
  C   C15       1.0  0.83779  0.08224  0.95712  1.0000
  C   C16       1.0  0.81315  0.05939  0.98953  1.0000
  Br  Br1       1.0  0.75531  0.08145  0.00280  1.0000
  H   H1        1.0  0.79472  0.01754  0.07241  1.0000
  H   H2        1.0  0.77561  0.98009  0.02993  1.0000
  H   H3        1.0  0.82527  0.96915  0.05981  1.0000
  H   H4        1.0  0.88734  0.97689  0.01347  1.0000
  H   H5        1.0  0.96891  0.04198  0.01997  1.0000
  H   H6        1.0  0.04651  0.00941  0.96608  1.0000
  H   H7        1.0  0.07859  0.94251  0.10058  1.0000
  H   H8        1.0  0.15583  0.91553  0.08445  1.0000
  H   H9        1.0  0.22388  0.92812  0.02218  1.0000
  H   H10       1.0  0.24214  0.97167  0.95388  1.0000
  H   H11       1.0  0.18775  0.02467  0.92233  1.0000
  H   H12       1.0  0.11448  0.03518  0.95701  1.0000
  H   H13       1.0  0.89916  0.08562  0.92035  1.0000
  H   H14       1.0  0.82373  0.11114  0.94007  1.0000
