data_image0
_chemical_formula_structural       C5NCOC2NC7OH14
_chemical_formula_sum              "C15 N2 O2 H14"
_cell_length_a       30
_cell_length_b       30
_cell_length_c       30
_cell_angle_alpha    90
_cell_angle_beta     90
_cell_angle_gamma    90

_space_group_name_H-M_alt    "P 1"
_space_group_IT_number       1

loop_
  _space_group_symop_operation_xyz
  'x, y, z'

loop_
  _atom_site_type_symbol
  _atom_site_label
  _atom_site_symmetry_multiplicity
  _atom_site_fract_x
  _atom_site_fract_y
  _atom_site_fract_z
  _atom_site_occupancy
  C   C1        1.0  0.18589  0.95522  0.02181  1.0000
  C   C2        1.0  0.15788  0.99266  0.00659  1.0000
  C   C3        1.0  0.16691  0.03433  0.98953  1.0000
  C   C4        1.0  0.12500  0.05456  0.98136  1.0000
  C   C5        1.0  0.09311  0.02394  0.99388  1.0000
  N   N1        1.0  0.04756  0.02721  0.99277  1.0000
  C   C6        1.0  0.01911  0.99313  0.00511  1.0000
  O   O1        1.0  0.03041  0.95580  0.01729  1.0000
  C   C7        1.0  0.97160  0.00513  0.00172  1.0000
  C   C8        1.0  0.95345  0.04755  0.99799  1.0000
  N   N2        1.0  0.90794  0.04387  0.99605  1.0000
  C   C9        1.0  0.87749  0.08107  0.99232  1.0000
  C   C10       1.0  0.89531  0.99986  0.99855  1.0000
  C   C11       1.0  0.85288  0.98005  0.99792  1.0000
  C   C12       1.0  0.85022  0.93367  0.00129  1.0000
  C   C13       1.0  0.88853  0.90789  0.00519  1.0000
  C   C14       1.0  0.93060  0.92798  0.00577  1.0000
  C   C15       1.0  0.93442  0.97480  0.00241  1.0000
  O   O2        1.0  0.11303  0.98639  0.00929  1.0000
  H   H1        1.0  0.17902  0.92530  0.00211  1.0000
  H   H2        1.0  0.17922  0.94773  0.05688  1.0000
  H   H3        1.0  0.22133  0.96317  0.01843  1.0000
  H   H4        1.0  0.19961  0.04831  0.98373  1.0000
  H   H5        1.0  0.11900  0.08742  0.96796  1.0000
  H   H6        1.0  0.03463  0.05574  0.98080  1.0000
  H   H7        1.0  0.96889  0.08011  0.99724  1.0000
  H   H8        1.0  0.85813  0.07709  0.96172  1.0000
  H   H9        1.0  0.85570  0.08110  0.02152  1.0000
  H   H10       1.0  0.89634  0.11222  0.99099  1.0000
  H   H11       1.0  0.82277  0.99988  0.99498  1.0000
  H   H12       1.0  0.81776  0.91754  0.00093  1.0000
  H   H13       1.0  0.88596  0.87184  0.00785  1.0000
  H   H14       1.0  0.96032  0.90744  0.00890  1.0000
