data_image0
_chemical_formula_structural       C7SCNC5ONC5OH18
_chemical_formula_sum              "C18 S1 N2 O2 H18"
_cell_length_a       30
_cell_length_b       30
_cell_length_c       30
_cell_angle_alpha    90
_cell_angle_beta     90
_cell_angle_gamma    90

_space_group_name_H-M_alt    "P 1"
_space_group_IT_number       1

loop_
  _space_group_symop_operation_xyz
  'x, y, z'

loop_
  _atom_site_type_symbol
  _atom_site_label
  _atom_site_symmetry_multiplicity
  _atom_site_fract_x
  _atom_site_fract_y
  _atom_site_fract_z
  _atom_site_occupancy
  C   C1        1.0  0.19713  0.00001  0.94010  1.0000
  C   C2        1.0  0.15649  0.00186  0.96773  1.0000
  C   C3        1.0  0.11885  0.02823  0.96699  1.0000
  C   C4        1.0  0.09143  0.01362  0.00269  1.0000
  C   C5        1.0  0.04965  0.02589  0.02004  1.0000
  C   C6        1.0  0.03243  0.00265  0.05714  1.0000
  C   C7        1.0  0.98727  0.01518  0.07558  1.0000
  S   S1        1.0  0.94406  0.97319  0.06750  1.0000
  C   C8        1.0  0.94955  0.96323  0.00920  1.0000
  N   N1        1.0  0.96703  0.92268  0.99914  1.0000
  C   C9        1.0  0.97406  0.91292  0.95572  1.0000
  C   C10       1.0  0.96370  0.94144  0.92097  1.0000
  C   C11       1.0  0.94472  0.98239  0.93133  1.0000
  C   C12       1.0  0.93702  0.99319  0.97601  1.0000
  C   C13       1.0  0.91712  0.03678  0.98588  1.0000
  O   O1        1.0  0.94207  0.06923  0.98413  1.0000
  N   N2        1.0  0.87177  0.03914  0.99540  1.0000
  C   C14       1.0  0.84194  0.00089  0.99828  1.0000
  C   C15       1.0  0.85311  0.08172  0.00900  1.0000
  C   C16       1.0  0.05725  0.96790  0.07643  1.0000
  C   C17       1.0  0.09893  0.95529  0.05965  1.0000
  C   C18       1.0  0.11449  0.97897  0.02293  1.0000
  O   O2        1.0  0.15399  0.97180  0.00171  1.0000
  H   H1        1.0  0.20038  0.96726  0.92436  1.0000
  H   H2        1.0  0.19622  0.02523  0.91376  1.0000
  H   H3        1.0  0.22675  0.00598  0.96054  1.0000
  H   H4        1.0  0.11192  0.05478  0.94366  1.0000
  H   H5        1.0  0.03090  0.05283  0.00465  1.0000
  H   H6        1.0  0.99061  0.02089  0.11153  1.0000
  H   H7        1.0  0.97591  0.04690  0.06163  1.0000
  H   H8        1.0  0.98892  0.88047  0.94950  1.0000
  H   H9        1.0  0.97035  0.93199  0.88671  1.0000
  H   H10       1.0  0.93618  0.00583  0.90507  1.0000
  H   H11       1.0  0.81048  0.00918  0.98180  1.0000
  H   H12       1.0  0.83564  0.99372  0.03347  1.0000
  H   H13       1.0  0.85574  0.97127  0.98230  1.0000
  H   H14       1.0  0.82341  0.08856  0.98899  1.0000
  H   H15       1.0  0.84387  0.07966  0.04422  1.0000
  H   H16       1.0  0.87674  0.10911  0.00465  1.0000
  H   H17       1.0  0.04381  0.94975  0.10487  1.0000
  H   H18       1.0  0.11809  0.92837  0.07416  1.0000
