data_image0
_chemical_formula_structural       C5NSO2C9NC5ClCH25
_chemical_formula_sum              "C20 N2 S1 O2 Cl1 H25"
_cell_length_a       30
_cell_length_b       30
_cell_length_c       30
_cell_angle_alpha    90
_cell_angle_beta     90
_cell_angle_gamma    90

_space_group_name_H-M_alt    "P 1"
_space_group_IT_number       1

loop_
  _space_group_symop_operation_xyz
  'x, y, z'

loop_
  _atom_site_type_symbol
  _atom_site_label
  _atom_site_symmetry_multiplicity
  _atom_site_fract_x
  _atom_site_fract_y
  _atom_site_fract_z
  _atom_site_occupancy
  C   C1        1.0  0.16987  0.94865  0.92934  1.0000
  C   C2        1.0  0.15021  0.98932  0.95082  1.0000
  C   C3        1.0  0.16956  0.00744  0.98923  1.0000
  C   C4        1.0  0.15193  0.04587  0.00880  1.0000
  C   C5        1.0  0.11489  0.06681  0.99003  1.0000
  N   N1        1.0  0.09615  0.10542  0.01104  1.0000
  S   S1        1.0  0.07195  0.09928  0.06171  1.0000
  O   O1        1.0  0.10491  0.08354  0.09325  1.0000
  O   O2        1.0  0.04713  0.13987  0.06980  1.0000
  C   C6        1.0  0.03276  0.05578  0.05275  1.0000
  C   C7        1.0  0.99110  0.06587  0.03474  1.0000
  C   C8        1.0  0.96053  0.03162  0.02700  1.0000
  C   C9        1.0  0.97079  0.98727  0.03773  1.0000
  C   C10       1.0  0.93893  0.94857  0.02886  1.0000
  C   C11       1.0  0.94479  0.93094  0.98095  1.0000
  C   C12       1.0  0.91880  0.95844  0.94682  1.0000
  C   C13       1.0  0.86974  0.96372  0.96028  1.0000
  C   C14       1.0  0.84533  0.99365  0.92709  1.0000
  N   N2        1.0  0.86556  0.98298  0.00505  1.0000
  C   C15       1.0  0.88850  0.95577  0.03882  1.0000
  C   C16       1.0  0.87994  0.97499  0.08530  1.0000
  C   C17       1.0  0.01281  0.97804  0.05645  1.0000
  C   C18       1.0  0.04360  0.01204  0.06426  1.0000
  C   C19       1.0  0.09591  0.04924  0.95109  1.0000
  Cl  Cl1       1.0  0.05058  0.07457  0.92611  1.0000
  C   C20       1.0  0.11350  0.01081  0.93155  1.0000
  H   H1        1.0  0.19520  0.95843  0.90498  1.0000
  H   H2        1.0  0.18525  0.92690  0.95429  1.0000
  H   H3        1.0  0.14409  0.92914  0.91240  1.0000
  H   H4        1.0  0.19861  0.99175  0.00430  1.0000
  H   H5        1.0  0.16758  0.05936  0.03861  1.0000
  H   H6        1.0  0.07681  0.12499  0.99098  1.0000
  H   H7        1.0  0.98215  0.09998  0.02633  1.0000
  H   H8        1.0  0.92848  0.04018  0.01237  1.0000
  H   H9        1.0  0.94946  0.92151  0.05128  1.0000
  H   H10       1.0  0.98007  0.92957  0.97147  1.0000
  H   H11       1.0  0.93238  0.89652  0.97966  1.0000
  H   H12       1.0  0.92089  0.94195  0.91426  1.0000
  H   H13       1.0  0.93453  0.99119  0.94276  1.0000
  H   H14       1.0  0.85359  0.93088  0.95982  1.0000
  H   H15       1.0  0.84738  0.97982  0.89336  1.0000
  H   H16       1.0  0.80995  0.99664  0.93567  1.0000
  H   H17       1.0  0.85961  0.02727  0.92631  1.0000
  H   H18       1.0  0.83268  0.98598  0.01322  1.0000
  H   H19       1.0  0.87274  0.92267  0.03846  1.0000
  H   H20       1.0  0.84425  0.97439  0.09308  1.0000
  H   H21       1.0  0.89704  0.95520  0.11078  1.0000
  H   H22       1.0  0.89116  0.00956  0.08837  1.0000
  H   H23       1.0  0.02192  0.94399  0.06505  1.0000
  H   H24       1.0  0.07582  0.00407  0.07884  1.0000
  H   H25       1.0  0.09857  0.99755  0.90129  1.0000
