data_image0
_chemical_formula_structural       C9NSCO2N2C2N2C3H27
_chemical_formula_sum              "C15 N5 S1 O2 H27"
_cell_length_a       30
_cell_length_b       30
_cell_length_c       30
_cell_angle_alpha    90
_cell_angle_beta     90
_cell_angle_gamma    90

_space_group_name_H-M_alt    "P 1"
_space_group_IT_number       1

loop_
  _space_group_symop_operation_xyz
  'x, y, z'

loop_
  _atom_site_type_symbol
  _atom_site_label
  _atom_site_symmetry_multiplicity
  _atom_site_fract_x
  _atom_site_fract_y
  _atom_site_fract_z
  _atom_site_occupancy
  C   C1        1.0  0.99919  0.94102  0.88438  1.0000
  C   C2        1.0  0.00561  0.96117  0.92902  1.0000
  C   C3        1.0  0.03470  0.99365  0.94341  1.0000
  C   C4        1.0  0.02534  0.00008  0.98932  1.0000
  C   C5        1.0  0.04853  0.03255  0.02039  1.0000
  C   C6        1.0  0.02284  0.04392  0.06322  1.0000
  C   C7        1.0  0.02029  0.00592  0.09707  1.0000
  C   C8        1.0  0.06047  0.97496  0.09443  1.0000
  C   C9        1.0  0.10143  0.99899  0.07679  1.0000
  N   N1        1.0  0.09445  0.01507  0.03042  1.0000
  S   S1        1.0  0.13613  0.04660  0.00867  1.0000
  C   C10       1.0  0.18136  0.00817  0.00637  1.0000
  O   O1        1.0  0.12443  0.05773  0.96317  1.0000
  O   O2        1.0  0.14661  0.08112  0.04070  1.0000
  N   N2        1.0  0.99174  0.97362  0.00254  1.0000
  N   N3        1.0  0.98131  0.94948  0.96591  1.0000
  C   C11       1.0  0.94591  0.91653  0.96903  1.0000
  C   C12       1.0  0.90033  0.93856  0.96482  1.0000
  N   N4        1.0  0.87231  0.92175  0.93666  1.0000
  N   N5        1.0  0.89019  0.97398  0.99234  1.0000
  C   C13       1.0  0.86621  0.01361  0.97722  1.0000
  C   C14       1.0  0.84468  0.03598  0.01760  1.0000
  C   C15       1.0  0.89868  0.04561  0.95433  1.0000
  H   H1        1.0  0.01766  0.95964  0.85890  1.0000
  H   H2        1.0  0.01108  0.90645  0.88406  1.0000
  H   H3        1.0  0.96395  0.94132  0.87485  1.0000
  H   H4        1.0  0.05971  0.01049  0.92355  1.0000
  H   H5        1.0  0.05094  0.06411  0.00203  1.0000
  H   H6        1.0  0.98902  0.05550  0.05542  1.0000
  H   H7        1.0  0.03978  0.07225  0.07922  1.0000
  H   H8        1.0  0.98988  0.98632  0.09200  1.0000
  H   H9        1.0  0.01762  0.02018  0.13064  1.0000
  H   H10       1.0  0.06730  0.96098  0.12750  1.0000
  H   H11       1.0  0.05277  0.94661  0.07266  1.0000
  H   H12       1.0  0.12909  0.97516  0.07685  1.0000
  H   H13       1.0  0.11022  0.02671  0.09892  1.0000
  H   H14       1.0  0.19103  0.99840  0.04002  1.0000
  H   H15       1.0  0.20933  0.02495  0.99020  1.0000
  H   H16       1.0  0.17122  0.97936  0.98660  1.0000
  H   H17       1.0  0.95075  0.89158  0.94291  1.0000
  H   H18       1.0  0.94855  0.90004  0.00148  1.0000
  H   H19       1.0  0.84267  0.93834  0.93936  1.0000
  H   H20       1.0  0.91674  0.98269  0.01216  1.0000
  H   H21       1.0  0.83969  0.00471  0.95366  1.0000
  H   H22       1.0  0.86968  0.04559  0.04252  1.0000
  H   H23       1.0  0.82102  0.01343  0.03394  1.0000
  H   H24       1.0  0.82642  0.06596  0.00764  1.0000
  H   H25       1.0  0.91333  0.03023  0.92458  1.0000
  H   H26       1.0  0.92615  0.05494  0.97669  1.0000
  H   H27       1.0  0.88169  0.07612  0.94385  1.0000
