data_image0
_chemical_formula_structural       C6NCOC2NC3ClC3OC11H27
_chemical_formula_sum              "C26 N2 O2 Cl1 H27"
_cell_length_a       30
_cell_length_b       30
_cell_length_c       30
_cell_angle_alpha    90
_cell_angle_beta     90
_cell_angle_gamma    90

_space_group_name_H-M_alt    "P 1"
_space_group_IT_number       1

loop_
  _space_group_symop_operation_xyz
  'x, y, z'

loop_
  _atom_site_type_symbol
  _atom_site_label
  _atom_site_symmetry_multiplicity
  _atom_site_fract_x
  _atom_site_fract_y
  _atom_site_fract_z
  _atom_site_occupancy
  C   C1        1.0  0.79506  0.82166  0.00220  1.0000
  C   C2        1.0  0.81390  0.86740  0.00962  1.0000
  C   C3        1.0  0.78882  0.90535  0.99942  1.0000
  C   C4        1.0  0.80590  0.94791  0.00757  1.0000
  C   C5        1.0  0.84842  0.95337  0.02619  1.0000
  C   C6        1.0  0.86620  0.99950  0.03595  1.0000
  N   N1        1.0  0.90918  0.00920  0.01473  1.0000
  C   C7        1.0  0.94741  0.00790  0.04123  1.0000
  O   O1        1.0  0.94695  0.99410  0.07988  1.0000
  C   C8        1.0  0.99040  0.02385  0.01978  1.0000
  C   C9        1.0  0.02730  0.02862  0.05443  1.0000
  N   N2        1.0  0.06840  0.04374  0.03295  1.0000
  C   C10       1.0  0.10298  0.01345  0.02450  1.0000
  C   C11       1.0  0.09567  0.96826  0.01551  1.0000
  C   C12       1.0  0.13122  0.93994  0.00517  1.0000
  Cl  Cl1       1.0  0.12114  0.88429  0.99510  1.0000
  C   C13       1.0  0.17469  0.95608  0.00279  1.0000
  C   C14       1.0  0.18271  0.00113  0.01029  1.0000
  C   C15       1.0  0.14699  0.02944  0.02014  1.0000
  O   O2        1.0  0.15508  0.07399  0.02850  1.0000
  C   C16       1.0  0.17084  0.09877  0.99320  1.0000
  C   C17       1.0  0.20366  0.13029  0.00277  1.0000
  C   C18       1.0  0.22059  0.15728  0.96891  1.0000
  C   C19       1.0  0.20438  0.15301  0.92561  1.0000
  C   C20       1.0  0.17097  0.12198  0.91614  1.0000
  C   C21       1.0  0.15400  0.09503  0.94998  1.0000
  C   C22       1.0  0.90810  0.02887  0.97075  1.0000
  C   C23       1.0  0.93261  0.00853  0.93185  1.0000
  C   C24       1.0  0.88268  0.00834  0.93253  1.0000
  C   C25       1.0  0.87315  0.91523  0.03699  1.0000
  C   C26       1.0  0.85605  0.87268  0.02884  1.0000
  H   H1        1.0  0.77151  0.82160  0.97434  1.0000
  H   H2        1.0  0.82157  0.79779  0.99418  1.0000
  H   H3        1.0  0.77764  0.81044  0.03223  1.0000
  H   H4        1.0  0.75566  0.90207  0.98511  1.0000
  H   H5        1.0  0.78568  0.97682  0.99936  1.0000
  H   H6        1.0  0.86866  0.00344  0.07217  1.0000
  H   H7        1.0  0.84248  0.02498  0.02475  1.0000
  H   H8        1.0  0.00028  0.99966  0.99430  1.0000
  H   H9        1.0  0.98500  0.05616  0.00368  1.0000
  H   H10       1.0  0.01737  0.05403  0.07884  1.0000
  H   H11       1.0  0.03234  0.99792  0.07364  1.0000
  H   H12       1.0  0.08108  0.07202  0.04707  1.0000
  H   H13       1.0  0.06225  0.95443  0.01635  1.0000
  H   H14       1.0  0.20223  0.93391  0.99494  1.0000
  H   H15       1.0  0.21644  0.01422  0.00841  1.0000
  H   H16       1.0  0.21611  0.13378  0.03652  1.0000
  H   H17       1.0  0.24629  0.18169  0.97636  1.0000
  H   H18       1.0  0.21752  0.17400  0.89917  1.0000
  H   H19       1.0  0.15797  0.11904  0.88250  1.0000
  H   H20       1.0  0.12749  0.07160  0.94245  1.0000
  H   H21       1.0  0.90701  0.06521  0.97226  1.0000
  H   H22       1.0  0.94924  0.03086  0.90876  1.0000
  H   H23       1.0  0.94902  0.97650  0.93613  1.0000
  H   H24       1.0  0.86671  0.97604  0.93644  1.0000
  H   H25       1.0  0.86524  0.03055  0.90995  1.0000
  H   H26       1.0  0.90592  0.91839  0.05244  1.0000
  H   H27       1.0  0.87585  0.84363  0.03790  1.0000
