data_image0
_chemical_formula_structural       C11ONC7O2C3NC2NH29
_chemical_formula_sum              "C23 O3 N3 H29"
_cell_length_a       30
_cell_length_b       30
_cell_length_c       30
_cell_angle_alpha    90
_cell_angle_beta     90
_cell_angle_gamma    90

_space_group_name_H-M_alt    "P 1"
_space_group_IT_number       1

loop_
  _space_group_symop_operation_xyz
  'x, y, z'

loop_
  _atom_site_type_symbol
  _atom_site_label
  _atom_site_symmetry_multiplicity
  _atom_site_fract_x
  _atom_site_fract_y
  _atom_site_fract_z
  _atom_site_occupancy
  C   C1        1.0  0.86326  0.95583  0.95561  1.0000
  C   C2        1.0  0.85170  0.99736  0.98139  1.0000
  C   C3        1.0  0.82586  0.02969  0.95931  1.0000
  C   C4        1.0  0.81293  0.06867  0.98085  1.0000
  C   C5        1.0  0.82502  0.07549  0.02497  1.0000
  C   C6        1.0  0.85066  0.04356  0.04712  1.0000
  C   C7        1.0  0.86588  0.00450  0.02582  1.0000
  C   C8        1.0  0.89483  0.97130  0.05081  1.0000
  C   C9        1.0  0.92868  0.98626  0.08513  1.0000
  C   C10       1.0  0.94459  0.96701  0.04180  1.0000
  C   C11       1.0  0.96730  0.99274  0.00593  1.0000
  O   O1        1.0  0.96421  0.98030  0.96713  1.0000
  N   N1        1.0  0.99443  0.02804  0.01928  1.0000
  C   C12       1.0  0.03893  0.02945  0.99905  1.0000
  C   C13       1.0  0.06863  0.99153  0.01583  1.0000
  C   C14       1.0  0.11555  0.99460  0.99606  1.0000
  C   C15       1.0  0.14645  0.96108  0.01847  1.0000
  C   C16       1.0  0.19322  0.95552  0.99717  1.0000
  C   C17       1.0  0.19070  0.90538  0.01001  1.0000
  C   C18       1.0  0.21167  0.87020  0.97878  1.0000
  O   O2        1.0  0.20064  0.83102  0.97420  1.0000
  O   O3        1.0  0.24628  0.88585  0.95432  1.0000
  C   C19       1.0  0.13927  0.91093  0.00819  1.0000
  C   C20       1.0  0.97201  0.07145  0.02136  1.0000
  C   C21       1.0  0.96716  0.09314  0.97663  1.0000
  N   N2        1.0  0.98326  0.13225  0.96451  1.0000
  C   C22       1.0  0.97012  0.13812  0.92112  1.0000
  C   C23       1.0  0.94587  0.10222  0.90646  1.0000
  N   N3        1.0  0.94437  0.07363  0.94193  1.0000
  H   H1        1.0  0.83293  0.94112  0.94157  1.0000
  H   H2        1.0  0.88583  0.96408  0.92827  1.0000
  H   H3        1.0  0.87900  0.93019  0.97624  1.0000
  H   H4        1.0  0.81542  0.02426  0.92497  1.0000
  H   H5        1.0  0.79308  0.09345  0.96340  1.0000
  H   H6        1.0  0.81459  0.10561  0.04227  1.0000
  H   H7        1.0  0.85923  0.04963  0.08186  1.0000
  H   H8        1.0  0.87770  0.94028  0.05884  1.0000
  H   H9        1.0  0.93354  0.02131  0.09185  1.0000
  H   H10       1.0  0.93242  0.96590  0.11485  1.0000
  H   H11       1.0  0.95777  0.93327  0.04373  1.0000
  H   H12       1.0  0.05464  0.06117  0.00809  1.0000
  H   H13       1.0  0.03598  0.02806  0.96271  1.0000
  H   H14       1.0  0.05387  0.95915  0.00731  1.0000
  H   H15       1.0  0.07031  0.99264  0.05235  1.0000
  H   H16       1.0  0.12891  0.02832  0.00099  1.0000
  H   H17       1.0  0.11404  0.98883  0.95995  1.0000
  H   H18       1.0  0.14889  0.96755  0.05451  1.0000
  H   H19       1.0  0.21994  0.97440  0.01321  1.0000
  H   H20       1.0  0.19436  0.96174  0.96116  1.0000
  H   H21       1.0  0.20227  0.89990  0.04440  1.0000
  H   H22       1.0  0.25577  0.85974  0.93712  1.0000
  H   H23       1.0  0.12062  0.89234  0.03341  1.0000
  H   H24       1.0  0.12473  0.90414  0.97533  1.0000
  H   H25       1.0  0.99152  0.09290  0.04355  1.0000
  H   H26       1.0  0.93902  0.06793  0.03609  1.0000
  H   H27       1.0  0.97894  0.16788  0.90275  1.0000
  H   H28       1.0  0.93043  0.09441  0.87486  1.0000
  H   H29       1.0  0.93079  0.04268  0.94246  1.0000
