data_image0
_chemical_formula_structural       C2N2C6NC2ONC4NCClH12
_chemical_formula_sum              "C15 N5 O1 Cl1 H12"
_cell_length_a       30
_cell_length_b       30
_cell_length_c       30
_cell_angle_alpha    90
_cell_angle_beta     90
_cell_angle_gamma    90

_space_group_name_H-M_alt    "P 1"
_space_group_IT_number       1

loop_
  _space_group_symop_operation_xyz
  'x, y, z'

loop_
  _atom_site_type_symbol
  _atom_site_label
  _atom_site_symmetry_multiplicity
  _atom_site_fract_x
  _atom_site_fract_y
  _atom_site_fract_z
  _atom_site_occupancy
  C   C1        1.0  0.00599  0.98189  0.91193  1.0000
  C   C2        1.0  0.98262  0.99567  0.95318  1.0000
  N   N1        1.0  0.93812  0.99415  0.95538  1.0000
  N   N2        1.0  0.92964  0.01104  0.99657  1.0000
  C   C3        1.0  0.88559  0.01644  0.01296  1.0000
  C   C4        1.0  0.84904  0.00430  0.98646  1.0000
  C   C5        1.0  0.80576  0.00966  0.00275  1.0000
  C   C6        1.0  0.79884  0.02708  0.04529  1.0000
  C   C7        1.0  0.83510  0.03923  0.07173  1.0000
  C   C8        1.0  0.87848  0.03397  0.05571  1.0000
  N   N3        1.0  0.96594  0.02194  0.02117  1.0000
  C   C9        1.0  0.00010  0.01210  0.99392  1.0000
  C   C10       1.0  0.04674  0.01891  0.00723  1.0000
  O   O1        1.0  0.05851  0.05213  0.02793  1.0000
  N   N4        1.0  0.07459  0.98429  0.99470  1.0000
  C   C11       1.0  0.12128  0.98092  0.00115  1.0000
  C   C12       1.0  0.14753  0.01438  0.01978  1.0000
  C   C13       1.0  0.19339  0.00787  0.02455  1.0000
  C   C14       1.0  0.21183  0.96797  0.01037  1.0000
  N   N5        1.0  0.18790  0.93470  0.99198  1.0000
  C   C15       1.0  0.14363  0.94206  0.98798  1.0000
  Cl  Cl1       1.0  0.11546  0.89807  0.96384  1.0000
  H   H1        1.0  0.98424  0.98492  0.88277  1.0000
  H   H2        1.0  0.03535  0.00271  0.90597  1.0000
  H   H3        1.0  0.01676  0.94713  0.91446  1.0000
  H   H4        1.0  0.85373  0.99067  0.95318  1.0000
  H   H5        1.0  0.77743  0.00025  0.98220  1.0000
  H   H6        1.0  0.76510  0.03124  0.05787  1.0000
  H   H7        1.0  0.82962  0.05285  0.10487  1.0000
  H   H8        1.0  0.90633  0.04372  0.07684  1.0000
  H   H9        1.0  0.06011  0.95661  0.98171  1.0000
  H   H10       1.0  0.13366  0.04587  0.03097  1.0000
  H   H11       1.0  0.21423  0.03362  0.03911  1.0000
  H   H12       1.0  0.24736  0.96164  0.01353  1.0000
