data_image0
_chemical_formula_structural       C5NCONCOCNC7OCOC2NOC2H28
_chemical_formula_sum              "C20 N4 O5 H28"
_cell_length_a       30
_cell_length_b       30
_cell_length_c       30
_cell_angle_alpha    90
_cell_angle_beta     90
_cell_angle_gamma    90

_space_group_name_H-M_alt    "P 1"
_space_group_IT_number       1

loop_
  _space_group_symop_operation_xyz
  'x, y, z'

loop_
  _atom_site_type_symbol
  _atom_site_label
  _atom_site_symmetry_multiplicity
  _atom_site_fract_x
  _atom_site_fract_y
  _atom_site_fract_z
  _atom_site_occupancy
  C   C1        1.0  0.14113  0.91463  0.97875  1.0000
  C   C2        1.0  0.12077  0.95792  0.99276  1.0000
  C   C3        1.0  0.07744  0.96841  0.00018  1.0000
  C   C4        1.0  0.03994  0.93849  0.99388  1.0000
  C   C5        1.0  0.99629  0.94719  0.98753  1.0000
  N   N1        1.0  0.96922  0.91296  0.97391  1.0000
  C   C6        1.0  0.93607  0.91180  0.94281  1.0000
  O   O1        1.0  0.92014  0.87520  0.93308  1.0000
  N   N2        1.0  0.92774  0.94819  0.91709  1.0000
  C   C7        1.0  0.88684  0.96822  0.92241  1.0000
  O   O2        1.0  0.85501  0.95619  0.89938  1.0000
  C   C8        1.0  0.88466  0.00905  0.95271  1.0000
  N   N3        1.0  0.86276  0.00039  0.99537  1.0000
  C   C9        1.0  0.84618  0.03956  0.01877  1.0000
  C   C10       1.0  0.87679  0.08011  0.02348  1.0000
  C   C11       1.0  0.91699  0.07479  0.05428  1.0000
  C   C12       1.0  0.95751  0.05273  0.03274  1.0000
  C   C13       1.0  0.96199  0.00137  0.03337  1.0000
  C   C14       1.0  0.92228  0.97500  0.05205  1.0000
  C   C15       1.0  0.88129  0.96580  0.02346  1.0000
  O   O3        1.0  0.97725  0.98850  0.98938  1.0000
  C   C16       1.0  0.07453  0.01715  0.01256  1.0000
  O   O4        1.0  0.06178  0.02134  0.05802  1.0000
  C   C17       1.0  0.12188  0.03242  0.00744  1.0000
  C   C18       1.0  0.13194  0.07967  0.01508  1.0000
  N   N4        1.0  0.16396  0.09792  0.98891  1.0000
  O   O5        1.0  0.11039  0.10176  0.04183  1.0000
  C   C19       1.0  0.14852  0.99773  0.99782  1.0000
  C   C20       1.0  0.19802  0.99628  0.99373  1.0000
  H   H1        1.0  0.11654  0.88844  0.97287  1.0000
  H   H2        1.0  0.16396  0.90241  0.00448  1.0000
  H   H3        1.0  0.15987  0.91874  0.94769  1.0000
  H   H4        1.0  0.04986  0.90380  0.99023  1.0000
  H   H5        1.0  0.97952  0.88154  0.98081  1.0000
  H   H6        1.0  0.92192  0.93265  0.88755  1.0000
  H   H7        1.0  0.86483  0.03344  0.93389  1.0000
  H   H8        1.0  0.91750  0.02410  0.95559  1.0000
  H   H9        1.0  0.81653  0.05084  0.00048  1.0000
  H   H10       1.0  0.83342  0.03027  0.05179  1.0000
  H   H11       1.0  0.85620  0.10706  0.03733  1.0000
  H   H12       1.0  0.88745  0.09221  0.99069  1.0000
  H   H13       1.0  0.92741  0.10878  0.06319  1.0000
  H   H14       1.0  0.90769  0.05932  0.08595  1.0000
  H   H15       1.0  0.96193  0.06572  0.99883  1.0000
  H   H16       1.0  0.98664  0.06569  0.05077  1.0000
  H   H17       1.0  0.98899  0.99425  0.05691  1.0000
  H   H18       1.0  0.91170  0.98976  0.08374  1.0000
  H   H19       1.0  0.93499  0.94201  0.06176  1.0000
  H   H20       1.0  0.88637  0.93540  0.00419  1.0000
  H   H21       1.0  0.85481  0.95535  0.04657  1.0000
  H   H22       1.0  0.05196  0.03587  0.99086  1.0000
  H   H23       1.0  0.06949  0.05184  0.06667  1.0000
  H   H24       1.0  0.16943  0.13107  0.99175  1.0000
  H   H25       1.0  0.17810  0.08149  0.96316  1.0000
  H   H26       1.0  0.21190  0.96937  0.01413  1.0000
  H   H27       1.0  0.20786  0.99074  0.95904  1.0000
  H   H28       1.0  0.21382  0.02706  0.00519  1.0000
