data_image0
_chemical_formula_structural       C2N2C9ONC5FCH24
_chemical_formula_sum              "C17 N3 O1 F1 H24"
_cell_length_a       30
_cell_length_b       30
_cell_length_c       30
_cell_angle_alpha    90
_cell_angle_beta     90
_cell_angle_gamma    90

_space_group_name_H-M_alt    "P 1"
_space_group_IT_number       1

loop_
  _space_group_symop_operation_xyz
  'x, y, z'

loop_
  _atom_site_type_symbol
  _atom_site_label
  _atom_site_symmetry_multiplicity
  _atom_site_fract_x
  _atom_site_fract_y
  _atom_site_fract_z
  _atom_site_occupancy
  C   C1        1.0  0.98145  0.99913  0.89310  1.0000
  C   C2        1.0  0.96303  0.00523  0.93901  1.0000
  N   N1        1.0  0.92850  0.98320  0.95280  1.0000
  N   N2        1.0  0.91919  0.99694  0.99554  1.0000
  C   C3        1.0  0.87197  0.99502  0.01053  1.0000
  C   C4        1.0  0.86792  0.99977  0.06144  1.0000
  C   C5        1.0  0.85138  0.94967  0.99769  1.0000
  C   C6        1.0  0.84509  0.03247  0.98804  1.0000
  C   C7        1.0  0.95187  0.02991  0.01175  1.0000
  C   C8        1.0  0.97888  0.01096  0.05045  1.0000
  C   C9        1.0  0.97836  0.04202  0.96950  1.0000
  C   C10       1.0  0.02825  0.05060  0.97344  1.0000
  C   C11       1.0  0.05833  0.01045  0.98119  1.0000
  O   O1        1.0  0.04633  0.97232  0.97323  1.0000
  N   N3        1.0  0.10014  0.02327  0.99617  1.0000
  C   C12       1.0  0.13640  0.99529  0.00697  1.0000
  C   C13       1.0  0.17597  0.01617  0.02070  1.0000
  C   C14       1.0  0.21356  0.99108  0.03213  1.0000
  C   C15       1.0  0.21187  0.94479  0.02994  1.0000
  C   C16       1.0  0.17268  0.92416  0.01641  1.0000
  F   F1        1.0  0.17114  0.87957  0.01439  1.0000
  C   C17       1.0  0.13505  0.94885  0.00496  1.0000
  H   H1        1.0  0.97015  0.96741  0.87915  1.0000
  H   H2        1.0  0.96959  0.02631  0.87192  1.0000
  H   H3        1.0  0.01782  0.99951  0.89349  1.0000
  H   H4        1.0  0.83308  0.99728  0.07218  1.0000
  H   H5        1.0  0.88660  0.97351  0.07861  1.0000
  H   H6        1.0  0.88046  0.03198  0.07314  1.0000
  H   H7        1.0  0.87071  0.92207  0.01184  1.0000
  H   H8        1.0  0.85048  0.94498  0.96147  1.0000
  H   H9        1.0  0.81705  0.94676  0.00985  1.0000
  H   H10       1.0  0.80997  0.03142  0.99804  1.0000
  H   H11       1.0  0.85819  0.06539  0.99688  1.0000
  H   H12       1.0  0.84637  0.02972  0.95164  1.0000
  H   H13       1.0  0.93407  0.05972  0.02312  1.0000
  H   H14       1.0  0.99391  0.97881  0.04205  1.0000
  H   H15       1.0  0.95774  0.00515  0.07958  1.0000
  H   H16       1.0  0.00510  0.03399  0.06101  1.0000
  H   H17       1.0  0.96340  0.07252  0.95567  1.0000
  H   H18       1.0  0.03989  0.06571  0.94218  1.0000
  H   H19       1.0  0.03400  0.07531  0.99976  1.0000
  H   H20       1.0  0.10570  0.05638  0.99952  1.0000
  H   H21       1.0  0.17818  0.05229  0.02270  1.0000
  H   H22       1.0  0.24401  0.00764  0.04268  1.0000
  H   H23       1.0  0.24062  0.92465  0.03865  1.0000
  H   H24       1.0  0.10557  0.93060  0.99480  1.0000
