data_image0
_chemical_formula_structural       C2N2C8NC4H25
_chemical_formula_sum              "C14 N3 H25"
_cell_length_a       30
_cell_length_b       30
_cell_length_c       30
_cell_angle_alpha    90
_cell_angle_beta     90
_cell_angle_gamma    90

_space_group_name_H-M_alt    "P 1"
_space_group_IT_number       1

loop_
  _space_group_symop_operation_xyz
  'x, y, z'

loop_
  _atom_site_type_symbol
  _atom_site_label
  _atom_site_symmetry_multiplicity
  _atom_site_fract_x
  _atom_site_fract_y
  _atom_site_fract_z
  _atom_site_occupancy
  C   C1        1.0  0.01929  0.90308  0.94988  1.0000
  C   C2        1.0  0.03630  0.94633  0.96691  1.0000
  N   N1        1.0  0.07971  0.95142  0.97506  1.0000
  N   N2        1.0  0.08399  0.99393  0.98898  1.0000
  C   C3        1.0  0.12892  0.00905  0.00027  1.0000
  C   C4        1.0  0.13609  0.01145  0.05064  1.0000
  C   C5        1.0  0.14262  0.05216  0.97687  1.0000
  C   C6        1.0  0.04386  0.01607  0.99091  1.0000
  C   C7        1.0  0.03825  0.06322  0.00494  1.0000
  C   C8        1.0  0.01196  0.98565  0.97677  1.0000
  C   C9        1.0  0.96265  0.99259  0.97238  1.0000
  C   C10       1.0  0.93732  0.98754  0.01694  1.0000
  N   N3        1.0  0.93597  0.94123  0.03261  1.0000
  C   C11       1.0  0.88921  0.00405  0.01369  1.0000
  C   C12       1.0  0.86017  0.98164  0.97910  1.0000
  C   C13       1.0  0.88074  0.05317  0.02224  1.0000
  C   C14       1.0  0.86671  0.01938  0.05637  1.0000
  H   H1        1.0  0.04658  0.88104  0.93977  1.0000
  H   H2        1.0  0.99788  0.90823  0.92079  1.0000
  H   H3        1.0  0.99995  0.88595  0.97561  1.0000
  H   H4        1.0  0.15136  0.98302  0.98756  1.0000
  H   H5        1.0  0.12732  0.97978  0.06657  1.0000
  H   H6        1.0  0.17109  0.01851  0.05827  1.0000
  H   H7        1.0  0.11590  0.03754  0.06616  1.0000
  H   H8        1.0  0.17862  0.05740  0.98013  1.0000
  H   H9        1.0  0.12624  0.08142  0.99116  1.0000
  H   H10       1.0  0.13466  0.05092  0.94126  1.0000
  H   H11       1.0  0.05726  0.07081  0.03503  1.0000
  H   H12       1.0  0.04873  0.08576  0.97824  1.0000
  H   H13       1.0  0.00331  0.07066  0.01236  1.0000
  H   H14       1.0  0.94923  0.96943  0.94747  1.0000
  H   H15       1.0  0.95676  0.02605  0.95876  1.0000
  H   H16       1.0  0.95478  0.00706  0.04252  1.0000
  H   H17       1.0  0.92091  0.94050  0.06304  1.0000
  H   H18       1.0  0.96794  0.93079  0.03783  1.0000
  H   H19       1.0  0.85956  0.94548  0.98380  1.0000
  H   H20       1.0  0.87232  0.98878  0.94545  1.0000
  H   H21       1.0  0.82564  0.99344  0.98086  1.0000
  H   H22       1.0  0.90874  0.07459  0.03022  1.0000
  H   H23       1.0  0.85480  0.06983  0.00334  1.0000
  H   H24       1.0  0.83135  0.01308  0.06050  1.0000
  H   H25       1.0  0.88528  0.01799  0.08735  1.0000
