data_image0
_chemical_formula_structural       C5NCNC5N2C10H20
_chemical_formula_sum              "C21 N4 H20"
_cell_length_a       30
_cell_length_b       30
_cell_length_c       30
_cell_angle_alpha    90
_cell_angle_beta     90
_cell_angle_gamma    90

_space_group_name_H-M_alt    "P 1"
_space_group_IT_number       1

loop_
  _space_group_symop_operation_xyz
  'x, y, z'

loop_
  _atom_site_type_symbol
  _atom_site_label
  _atom_site_symmetry_multiplicity
  _atom_site_fract_x
  _atom_site_fract_y
  _atom_site_fract_z
  _atom_site_occupancy
  C   C1        1.0  0.04105  0.89554  0.99160  1.0000
  C   C2        1.0  0.00020  0.92156  0.00499  1.0000
  C   C3        1.0  0.96315  0.89994  0.01760  1.0000
  C   C4        1.0  0.92471  0.92796  0.03102  1.0000
  C   C5        1.0  0.88743  0.90476  0.05563  1.0000
  N   N1        1.0  0.92058  0.97013  0.02427  1.0000
  C   C6        1.0  0.95695  0.99180  0.99964  1.0000
  N   N2        1.0  0.94562  0.99831  0.95311  1.0000
  C   C7        1.0  0.91101  0.02758  0.94406  1.0000
  C   C8        1.0  0.91196  0.07199  0.95730  1.0000
  C   C9        1.0  0.87696  0.10007  0.94541  1.0000
  C   C10       1.0  0.84212  0.08322  0.92014  1.0000
  C   C11       1.0  0.84403  0.03890  0.90773  1.0000
  N   N3        1.0  0.87765  0.01108  0.91887  1.0000
  N   N4        1.0  0.00005  0.96789  0.00122  1.0000
  C   C12       1.0  0.03847  0.99512  0.00394  1.0000
  C   C13       1.0  0.04617  0.02959  0.97339  1.0000
  C   C14       1.0  0.08392  0.05675  0.97655  1.0000
  C   C15       1.0  0.11518  0.05029  0.01062  1.0000
  C   C16       1.0  0.15329  0.07723  0.01427  1.0000
  C   C17       1.0  0.18406  0.07035  0.04847  1.0000
  C   C18       1.0  0.17701  0.03660  0.07947  1.0000
  C   C19       1.0  0.13928  0.00955  0.07626  1.0000
  C   C20       1.0  0.10811  0.01589  0.04190  1.0000
  C   C21       1.0  0.06997  0.98886  0.03806  1.0000
  H   H1        1.0  0.06639  0.89646  0.01776  1.0000
  H   H2        1.0  0.03316  0.86043  0.98535  1.0000
  H   H3        1.0  0.05538  0.90886  0.96079  1.0000
  H   H4        1.0  0.96094  0.86408  0.02033  1.0000
  H   H5        1.0  0.88898  0.91393  0.09086  1.0000
  H   H6        1.0  0.85531  0.91531  0.04200  1.0000
  H   H7        1.0  0.88998  0.86852  0.05271  1.0000
  H   H8        1.0  0.96169  0.02407  0.01618  1.0000
  H   H9        1.0  0.93586  0.96858  0.94044  1.0000
  H   H10       1.0  0.93984  0.08519  0.97612  1.0000
  H   H11       1.0  0.87720  0.13482  0.95555  1.0000
  H   H12       1.0  0.81443  0.10409  0.91010  1.0000
  H   H13       1.0  0.81787  0.02404  0.88758  1.0000
  H   H14       1.0  0.02315  0.03519  0.94589  1.0000
  H   H15       1.0  0.08870  0.08289  0.95186  1.0000
  H   H16       1.0  0.15930  0.10377  0.99041  1.0000
  H   H17       1.0  0.21347  0.09137  0.05085  1.0000
  H   H18       1.0  0.20092  0.03118  0.10610  1.0000
  H   H19       1.0  0.13439  0.98331  0.10079  1.0000
  H   H20       1.0  0.06414  0.96300  0.06279  1.0000
