data_image0
_chemical_formula_structural       C6ONC3N2C9NCOC3H20
_chemical_formula_sum              "C22 O2 N4 H20"
_cell_length_a       30
_cell_length_b       30
_cell_length_c       30
_cell_angle_alpha    90
_cell_angle_beta     90
_cell_angle_gamma    90

_space_group_name_H-M_alt    "P 1"
_space_group_IT_number       1

loop_
  _space_group_symop_operation_xyz
  'x, y, z'

loop_
  _atom_site_type_symbol
  _atom_site_label
  _atom_site_symmetry_multiplicity
  _atom_site_fract_x
  _atom_site_fract_y
  _atom_site_fract_z
  _atom_site_occupancy
  C   C1        1.0  0.18321  0.91491  0.98012  1.0000
  C   C2        1.0  0.15228  0.95390  0.98628  1.0000
  C   C3        1.0  0.12417  0.95514  0.02365  1.0000
  C   C4        1.0  0.09513  0.99088  0.03062  1.0000
  C   C5        1.0  0.09355  0.02593  1.00000  1.0000
  C   C6        1.0  0.06333  0.06508  0.00578  1.0000
  O   O1        1.0  0.07525  0.10113  0.99055  1.0000
  N   N1        1.0  0.02351  0.05645  0.02757  1.0000
  C   C7        1.0  0.99119  0.08879  0.03460  1.0000
  C   C8        1.0  0.99002  0.13345  0.02378  1.0000
  C   C9        1.0  0.94827  0.14883  0.03826  1.0000
  N   N2        1.0  0.92419  0.11687  0.05756  1.0000
  N   N3        1.0  0.95104  0.08062  0.05556  1.0000
  C   C10       1.0  0.93596  0.03986  0.07733  1.0000
  C   C11       1.0  0.91489  0.00776  0.04536  1.0000
  C   C12       1.0  0.87112  0.00741  0.03566  1.0000
  C   C13       1.0  0.85275  0.97473  0.00451  1.0000
  C   C14       1.0  0.80749  0.97423  0.99357  1.0000
  C   C15       1.0  0.79115  0.94252  0.96363  1.0000
  C   C16       1.0  0.81991  0.91129  0.94457  1.0000
  C   C17       1.0  0.86517  0.91159  0.95531  1.0000
  C   C18       1.0  0.88135  0.94329  0.98520  1.0000
  N   N4        1.0  0.92670  0.94390  0.99626  1.0000
  C   C19       1.0  0.94512  0.97396  0.02512  1.0000
  O   O2        1.0  0.98506  0.97338  0.03427  1.0000
  C   C20       1.0  0.12198  0.02522  0.96294  1.0000
  C   C21       1.0  0.15137  0.98949  0.95564  1.0000
  C   C22       1.0  0.18114  0.99012  0.91530  1.0000
  H   H1        1.0  0.17828  0.88968  0.00604  1.0000
  H   H2        1.0  0.21794  0.92594  0.98187  1.0000
  H   H3        1.0  0.17713  0.89880  0.94795  1.0000
  H   H4        1.0  0.12481  0.92819  0.04793  1.0000
  H   H5        1.0  0.07456  0.99091  0.06041  1.0000
  H   H6        1.0  0.01593  0.02411  0.03486  1.0000
  H   H7        1.0  0.01562  0.15254  0.00711  1.0000
  H   H8        1.0  0.93446  0.18205  0.03551  1.0000
  H   H9        1.0  0.96444  0.02550  0.09511  1.0000
  H   H10       1.0  0.91206  0.04969  0.10324  1.0000
  H   H11       1.0  0.84859  0.03176  0.05017  1.0000
  H   H12       1.0  0.78467  0.99839  0.00802  1.0000
  H   H13       1.0  0.75592  0.94223  0.95510  1.0000
  H   H14       1.0  0.80699  0.88674  0.92124  1.0000
  H   H15       1.0  0.88721  0.88717  0.94022  1.0000
  H   H16       1.0  0.94771  0.92142  0.98251  1.0000
  H   H17       1.0  0.12106  0.05296  0.93951  1.0000
  H   H18       1.0  0.21618  0.98856  0.92535  1.0000
  H   H19       1.0  0.17671  0.02068  0.89582  1.0000
  H   H20       1.0  0.17344  0.96193  0.89346  1.0000
