data_image0
_chemical_formula_structural       C4NCOC2NSO2C8NCONOH16
_chemical_formula_sum              "C16 N4 O5 S1 H16"
_cell_length_a       30
_cell_length_b       30
_cell_length_c       30
_cell_angle_alpha    90
_cell_angle_beta     90
_cell_angle_gamma    90

_space_group_name_H-M_alt    "P 1"
_space_group_IT_number       1

loop_
  _space_group_symop_operation_xyz
  'x, y, z'

loop_
  _atom_site_type_symbol
  _atom_site_label
  _atom_site_symmetry_multiplicity
  _atom_site_fract_x
  _atom_site_fract_y
  _atom_site_fract_z
  _atom_site_occupancy
  C   C1        1.0  0.26320  0.94411  0.99136  1.0000
  C   C2        1.0  0.23063  0.97801  0.00545  1.0000
  C   C3        1.0  0.18497  0.98076  0.00476  1.0000
  C   C4        1.0  0.17534  0.02275  0.02368  1.0000
  N   N1        1.0  0.13477  0.04285  0.03125  1.0000
  C   C5        1.0  0.09388  0.02471  0.02100  1.0000
  O   O1        1.0  0.08768  0.98867  0.00275  1.0000
  C   C6        1.0  0.05589  0.05568  0.03315  1.0000
  C   C7        1.0  0.01124  0.03149  0.03251  1.0000
  N   N2        1.0  0.97563  0.06429  0.04075  1.0000
  S   S1        1.0  0.92781  0.04718  0.06540  1.0000
  O   O2        1.0  0.90261  0.08839  0.06932  1.0000
  O   O3        1.0  0.93996  0.02356  0.10565  1.0000
  C   C8        1.0  0.90028  0.01246  0.02837  1.0000
  C   C9        1.0  0.86434  0.02798  0.00642  1.0000
  C   C10       1.0  0.83974  0.99925  0.97563  1.0000
  C   C11       1.0  0.80237  0.01460  0.95248  1.0000
  C   C12       1.0  0.77966  0.98607  0.92350  1.0000
  C   C13       1.0  0.79416  0.94225  0.91762  1.0000
  C   C14       1.0  0.83144  0.92668  0.94066  1.0000
  C   C15       1.0  0.85400  0.95525  0.96954  1.0000
  N   N3        1.0  0.89151  0.94015  0.99275  1.0000
  C   C16       1.0  0.91587  0.96614  0.02155  1.0000
  O   O4        1.0  0.94929  0.95078  0.03928  1.0000
  N   N4        1.0  0.21282  0.04408  0.03504  1.0000
  O   O5        1.0  0.24747  0.01594  0.02357  1.0000
  H   H1        1.0  0.28324  0.93304  0.01976  1.0000
  H   H2        1.0  0.24647  0.91494  0.97723  1.0000
  H   H3        1.0  0.28565  0.95769  0.96602  1.0000
  H   H4        1.0  0.16208  0.95587  0.99244  1.0000
  H   H5        1.0  0.13713  0.07310  0.04593  1.0000
  H   H6        1.0  0.06181  0.06977  0.06636  1.0000
  H   H7        1.0  0.05579  0.08328  0.00917  1.0000
  H   H8        1.0  0.00542  0.01573  0.00011  1.0000
  H   H9        1.0  0.01159  0.00570  0.05829  1.0000
  H   H10       1.0  0.96995  0.08723  0.01636  1.0000
  H   H11       1.0  0.85202  0.06170  0.01113  1.0000
  H   H12       1.0  0.79050  0.04859  0.95673  1.0000
  H   H13       1.0  0.75053  0.99803  0.90552  1.0000
  H   H14       1.0  0.77632  0.92019  0.89505  1.0000
  H   H15       1.0  0.84239  0.89251  0.93584  1.0000
  H   H16       1.0  0.90256  0.90855  0.98856  1.0000
