data_image0
_chemical_formula_structural       C4ONC4ICNCN2C5NH12
_chemical_formula_sum              "C15 O1 N5 I1 H12"
_cell_length_a       30
_cell_length_b       30
_cell_length_c       30
_cell_angle_alpha    90
_cell_angle_beta     90
_cell_angle_gamma    90

_space_group_name_H-M_alt    "P 1"
_space_group_IT_number       1

loop_
  _space_group_symop_operation_xyz
  'x, y, z'

loop_
  _atom_site_type_symbol
  _atom_site_label
  _atom_site_symmetry_multiplicity
  _atom_site_fract_x
  _atom_site_fract_y
  _atom_site_fract_z
  _atom_site_occupancy
  C   C1        1.0  0.03959  0.93993  0.02521  1.0000
  C   C2        1.0  0.03674  0.98383  0.00221  1.0000
  C   C3        1.0  0.99881  0.00934  0.99375  1.0000
  C   C4        1.0  0.95377  0.00083  0.01042  1.0000
  O   O1        1.0  0.94760  0.97639  0.04260  1.0000
  N   N1        1.0  0.92079  0.02212  0.98686  1.0000
  C   C5        1.0  0.87495  0.02161  0.99449  1.0000
  C   C6        1.0  0.85433  0.99989  0.02977  1.0000
  C   C7        1.0  0.80797  0.00210  0.03368  1.0000
  C   C8        1.0  0.78370  0.02593  0.00232  1.0000
  I   I1        1.0  0.71510  0.03029  0.00650  1.0000
  C   C9        1.0  0.80685  0.04668  0.96824  1.0000
  N   N2        1.0  0.85181  0.04503  0.96376  1.0000
  C   C10       1.0  0.01430  0.04352  0.96567  1.0000
  N   N3        1.0  0.05754  0.04051  0.95684  1.0000
  N   N4        1.0  0.07261  0.00623  0.98264  1.0000
  C   C11       1.0  0.11995  0.99876  0.98601  1.0000
  C   C12       1.0  0.13801  0.97450  0.02123  1.0000
  C   C13       1.0  0.18412  0.96848  0.02328  1.0000
  C   C14       1.0  0.21112  0.98700  0.99058  1.0000
  C   C15       1.0  0.19091  0.01132  0.95712  1.0000
  N   N5        1.0  0.14648  0.01768  0.95432  1.0000
  H   H1        1.0  0.04530  0.94441  0.06094  1.0000
  H   H2        1.0  0.06581  0.91887  0.01112  1.0000
  H   H3        1.0  0.00860  0.92107  0.02116  1.0000
  H   H4        1.0  0.92845  0.03958  0.95916  1.0000
  H   H5        1.0  0.87289  0.98126  0.05453  1.0000
  H   H6        1.0  0.79167  0.98514  0.06122  1.0000
  H   H7        1.0  0.78991  0.06588  0.94262  1.0000
  H   H8        1.0  0.99599  0.07075  0.95067  1.0000
  H   H9        1.0  0.11806  0.96138  0.04823  1.0000
  H   H10       1.0  0.19886  0.94980  0.05060  1.0000
  H   H11       1.0  0.24702  0.98297  0.99140  1.0000
  H   H12       1.0  0.21037  0.02693  0.93087  1.0000
