data_image0
_chemical_formula_structural       C2N2C3NSO2C4FC2ClC4NH18
_chemical_formula_sum              "C15 N4 S1 O2 F1 Cl1 H18"
_cell_length_a       30
_cell_length_b       30
_cell_length_c       30
_cell_angle_alpha    90
_cell_angle_beta     90
_cell_angle_gamma    90

_space_group_name_H-M_alt    "P 1"
_space_group_IT_number       1

loop_
  _space_group_symop_operation_xyz
  'x, y, z'

loop_
  _atom_site_type_symbol
  _atom_site_label
  _atom_site_symmetry_multiplicity
  _atom_site_fract_x
  _atom_site_fract_y
  _atom_site_fract_z
  _atom_site_occupancy
  C   C1        1.0  0.13795  0.09939  0.99564  1.0000
  C   C2        1.0  0.12826  0.05124  0.99814  1.0000
  N   N1        1.0  0.08675  0.03507  0.99973  1.0000
  N   N2        1.0  0.09426  0.99081  0.00182  1.0000
  C   C3        1.0  0.05696  0.95972  0.00363  1.0000
  C   C4        1.0  0.02252  0.97268  0.03929  1.0000
  C   C5        1.0  0.98417  0.99901  0.01908  1.0000
  N   N3        1.0  0.96022  0.97244  0.98434  1.0000
  S   S1        1.0  0.90842  0.95289  0.99920  1.0000
  O   O1        1.0  0.89108  0.92782  0.96184  1.0000
  O   O2        1.0  0.91451  0.93307  0.04276  1.0000
  C   C6        1.0  0.87531  0.00162  0.00374  1.0000
  C   C7        1.0  0.88709  0.03929  0.97843  1.0000
  C   C8        1.0  0.86212  0.07836  0.98179  1.0000
  C   C9        1.0  0.82544  0.07953  0.00997  1.0000
  F   F1        1.0  0.80143  0.11700  0.01320  1.0000
  C   C10       1.0  0.81300  0.04228  0.03455  1.0000
  C   C11       1.0  0.83780  0.00290  0.03139  1.0000
  Cl  Cl1       1.0  0.81815  0.95786  0.06127  1.0000
  C   C12       1.0  0.98797  0.93839  0.96125  1.0000
  C   C13       1.0  0.03595  0.95419  0.95731  1.0000
  C   C14       1.0  0.13905  0.98173  0.00113  1.0000
  C   C15       1.0  0.15858  0.93644  0.00248  1.0000
  N   N4        1.0  0.16110  0.01962  0.99894  1.0000
  H   H1        1.0  0.17390  0.10537  0.99396  1.0000
  H   H2        1.0  0.12497  0.11661  0.02507  1.0000
  H   H3        1.0  0.12264  0.11403  0.96595  1.0000
  H   H4        1.0  0.07106  0.92759  0.01393  1.0000
  H   H5        1.0  0.00916  0.94213  0.05437  1.0000
  H   H6        1.0  0.03793  0.99161  0.06649  1.0000
  H   H7        1.0  0.96135  0.00933  0.04565  1.0000
  H   H8        1.0  0.99593  0.02983  0.00343  1.0000
  H   H9        1.0  0.91540  0.03845  0.95577  1.0000
  H   H10       1.0  0.87091  0.10772  0.96251  1.0000
  H   H11       1.0  0.78369  0.04427  0.05574  1.0000
  H   H12       1.0  0.98673  0.90657  0.97919  1.0000
  H   H13       1.0  0.97446  0.93319  0.92772  1.0000
  H   H14       1.0  0.03673  0.98566  0.93863  1.0000
  H   H15       1.0  0.05551  0.93024  0.93780  1.0000
  H   H16       1.0  0.15089  0.92002  0.03413  1.0000
  H   H17       1.0  0.14577  0.91595  0.97516  1.0000
  H   H18       1.0  0.19488  0.93809  0.99920  1.0000
