data_image0
_chemical_formula_structural       C3SC5NCOC4Cl2C3NH16
_chemical_formula_sum              "C16 S1 N2 O1 Cl2 H16"
_cell_length_a       30
_cell_length_b       30
_cell_length_c       30
_cell_angle_alpha    90
_cell_angle_beta     90
_cell_angle_gamma    90

_space_group_name_H-M_alt    "P 1"
_space_group_IT_number       1

loop_
  _space_group_symop_operation_xyz
  'x, y, z'

loop_
  _atom_site_type_symbol
  _atom_site_label
  _atom_site_symmetry_multiplicity
  _atom_site_fract_x
  _atom_site_fract_y
  _atom_site_fract_z
  _atom_site_occupancy
  C   C1        1.0  0.22357  0.98932  0.96339  1.0000
  C   C2        1.0  0.17927  0.97236  0.97752  1.0000
  C   C3        1.0  0.15626  0.93713  0.95882  1.0000
  S   S1        1.0  0.10664  0.92939  0.98592  1.0000
  C   C4        1.0  0.11906  0.97356  0.02036  1.0000
  C   C5        1.0  0.08714  0.98751  0.05626  1.0000
  C   C6        1.0  0.04948  0.01642  0.03924  1.0000
  C   C7        1.0  0.00632  0.99898  0.03398  1.0000
  C   C8        1.0  0.97134  0.02549  0.01786  1.0000
  N   N1        1.0  0.92916  0.00515  0.01377  1.0000
  C   C9        1.0  0.89049  0.02411  0.99767  1.0000
  O   O1        1.0  0.88561  0.06132  0.98192  1.0000
  C   C10       1.0  0.85134  0.99298  0.99806  1.0000
  C   C11       1.0  0.84180  0.97091  0.95369  1.0000
  C   C12       1.0  0.84063  0.96620  0.03969  1.0000
  C   C13       1.0  0.81231  0.00597  0.02795  1.0000
  Cl  Cl1       1.0  0.81566  0.05127  0.06538  1.0000
  Cl  Cl2       1.0  0.75697  0.99515  0.01109  1.0000
  C   C14       1.0  0.97991  0.06989  0.00704  1.0000
  C   C15       1.0  0.02275  0.08752  0.01194  1.0000
  C   C16       1.0  0.05737  0.06097  0.02785  1.0000
  N   N2        1.0  0.15787  0.99277  0.01295  1.0000
  H   H1        1.0  0.22503  0.99290  0.92710  1.0000
  H   H2        1.0  0.24984  0.96626  0.97385  1.0000
  H   H3        1.0  0.23041  0.02194  0.97823  1.0000
  H   H4        1.0  0.16601  0.91614  0.93122  1.0000
  H   H5        1.0  0.07372  0.95804  0.07328  1.0000
  H   H6        1.0  0.10534  0.00608  0.08201  1.0000
  H   H7        1.0  0.00030  0.96427  0.04252  1.0000
  H   H8        1.0  0.92749  0.97276  0.02290  1.0000
  H   H9        1.0  0.82952  0.99554  0.92972  1.0000
  H   H10       1.0  0.87240  0.95623  0.94022  1.0000
  H   H11       1.0  0.81722  0.94405  0.95624  1.0000
  H   H12       1.0  0.82604  0.93333  0.03605  1.0000
  H   H13       1.0  0.86209  0.96895  0.06865  1.0000
  H   H14       1.0  0.95399  0.09188  0.99464  1.0000
  H   H15       1.0  0.02902  0.12212  0.00318  1.0000
  H   H16       1.0  0.09063  0.07514  0.03112  1.0000
