data_image0
_chemical_formula_structural       C9N2C3NCNC5SC2H20
_chemical_formula_sum              "C20 N4 S1 H20"
_cell_length_a       30
_cell_length_b       30
_cell_length_c       30
_cell_angle_alpha    90
_cell_angle_beta     90
_cell_angle_gamma    90

_space_group_name_H-M_alt    "P 1"
_space_group_IT_number       1

loop_
  _space_group_symop_operation_xyz
  'x, y, z'

loop_
  _atom_site_type_symbol
  _atom_site_label
  _atom_site_symmetry_multiplicity
  _atom_site_fract_x
  _atom_site_fract_y
  _atom_site_fract_z
  _atom_site_occupancy
  C   C1        1.0  0.92899  0.96766  0.86077  1.0000
  C   C2        1.0  0.93772  0.98299  0.90756  1.0000
  C   C3        1.0  0.93944  0.95222  0.94253  1.0000
  C   C4        1.0  0.94655  0.96652  0.98627  1.0000
  C   C5        1.0  0.95205  0.01196  0.99598  1.0000
  C   C6        1.0  0.96016  0.02830  0.04341  1.0000
  C   C7        1.0  0.91698  0.02710  0.06963  1.0000
  C   C8        1.0  0.88295  0.06402  0.06520  1.0000
  C   C9        1.0  0.90914  0.05924  0.10762  1.0000
  N   N1        1.0  0.99720  0.00360  0.06467  1.0000
  N   N2        1.0  0.98847  0.97172  0.09564  1.0000
  C   C10       1.0  0.02870  0.95870  0.10910  1.0000
  C   C11       1.0  0.06327  0.98085  0.08662  1.0000
  C   C12       1.0  0.10957  0.97410  0.09444  1.0000
  N   N3        1.0  0.14718  0.96845  0.10164  1.0000
  C   C13       1.0  0.04263  0.00926  0.05663  1.0000
  N   N4        1.0  0.05768  0.03839  0.02484  1.0000
  C   C14       1.0  0.10266  0.03530  0.00587  1.0000
  C   C15       1.0  0.11047  0.99635  0.97527  1.0000
  C   C16       1.0  0.08025  0.97316  0.94933  1.0000
  C   C17       1.0  0.10062  0.93815  0.92455  1.0000
  C   C18       1.0  0.14582  0.93589  0.93205  1.0000
  S   S1        1.0  0.16345  0.97585  0.96861  1.0000
  C   C19       1.0  0.94917  0.04278  0.96087  1.0000
  C   C20       1.0  0.94208  0.02841  0.91714  1.0000
  H   H1        1.0  0.94458  0.99013  0.83660  1.0000
  H   H2        1.0  0.94295  0.93440  0.85517  1.0000
  H   H3        1.0  0.89308  0.96662  0.85448  1.0000
  H   H4        1.0  0.93522  0.91679  0.93601  1.0000
  H   H5        1.0  0.94779  0.94175  0.01281  1.0000
  H   H6        1.0  0.97199  0.06295  0.04232  1.0000
  H   H7        1.0  0.90437  0.99342  0.07384  1.0000
  H   H8        1.0  0.84801  0.05474  0.06570  1.0000
  H   H9        1.0  0.89033  0.09221  0.04385  1.0000
  H   H10       1.0  0.93441  0.08399  0.11499  1.0000
  H   H11       1.0  0.89210  0.04657  0.13689  1.0000
  H   H12       1.0  0.03113  0.93353  0.13487  1.0000
  H   H13       1.0  0.03592  0.04912  0.00108  1.0000
  H   H14       1.0  0.10805  0.06573  0.98626  1.0000
  H   H15       1.0  0.12753  0.03663  0.03256  1.0000
  H   H16       1.0  0.04494  0.98065  0.94832  1.0000
  H   H17       1.0  0.08297  0.91576  0.90241  1.0000
  H   H18       1.0  0.16945  0.91270  0.91781  1.0000
  H   H19       1.0  0.95219  0.07836  0.96726  1.0000
  H   H20       1.0  0.93979  0.05296  0.89054  1.0000
