data_image0
_chemical_formula_structural       C3NC5OC3N2CNC2H18
_chemical_formula_sum              "C14 N4 O1 H18"
_cell_length_a       30
_cell_length_b       30
_cell_length_c       30
_cell_angle_alpha    90
_cell_angle_beta     90
_cell_angle_gamma    90

_space_group_name_H-M_alt    "P 1"
_space_group_IT_number       1

loop_
  _space_group_symop_operation_xyz
  'x, y, z'

loop_
  _atom_site_type_symbol
  _atom_site_label
  _atom_site_symmetry_multiplicity
  _atom_site_fract_x
  _atom_site_fract_y
  _atom_site_fract_z
  _atom_site_occupancy
  C   C1        1.0  0.89828  0.01371  0.93603  1.0000
  C   C2        1.0  0.89746  0.98460  0.97646  1.0000
  C   C3        1.0  0.87580  0.94497  0.97825  1.0000
  N   N1        1.0  0.87345  0.91540  0.01391  1.0000
  C   C4        1.0  0.89966  0.92280  0.04755  1.0000
  C   C5        1.0  0.92751  0.96236  0.04682  1.0000
  C   C6        1.0  0.96925  0.97262  0.05849  1.0000
  C   C7        1.0  0.97119  0.00784  0.02083  1.0000
  C   C8        1.0  0.98661  0.05448  0.03400  1.0000
  O   O1        1.0  0.03176  0.05491  0.04937  1.0000
  C   C9        1.0  0.06497  0.04874  0.01566  1.0000
  C   C10       1.0  0.10362  0.07993  0.02642  1.0000
  C   C11       1.0  0.08024  0.00125  0.01702  1.0000
  N   N2        1.0  0.08918  0.97717  0.05278  1.0000
  N   N3        1.0  0.10203  0.93533  0.03928  1.0000
  C   C12       1.0  0.10105  0.93467  0.99561  1.0000
  N   N4        1.0  0.08791  0.97522  0.98017  1.0000
  C   C13       1.0  0.08339  0.98758  0.93409  1.0000
  C   C14       1.0  0.91961  0.00182  0.01775  1.0000
  H   H1        1.0  0.87910  0.99938  0.90847  1.0000
  H   H2        1.0  0.88409  0.04645  0.94368  1.0000
  H   H3        1.0  0.93257  0.01843  0.92451  1.0000
  H   H4        1.0  0.85821  0.93317  0.94877  1.0000
  H   H5        1.0  0.90194  0.90018  0.07635  1.0000
  H   H6        1.0  0.99566  0.95570  0.07672  1.0000
  H   H7        1.0  0.98849  0.99650  0.99060  1.0000
  H   H8        1.0  0.98273  0.07795  0.00626  1.0000
  H   H9        1.0  0.96633  0.06726  0.06157  1.0000
  H   H10       1.0  0.05154  0.05772  0.98290  1.0000
  H   H11       1.0  0.13069  0.07653  0.00218  1.0000
  H   H12       1.0  0.11714  0.07338  0.05974  1.0000
  H   H13       1.0  0.09226  0.11464  0.02639  1.0000
  H   H14       1.0  0.10938  0.90658  0.97465  1.0000
  H   H15       1.0  0.04827  0.99447  0.92731  1.0000
  H   H16       1.0  0.10371  0.01718  0.92788  1.0000
  H   H17       1.0  0.09487  0.96026  0.91289  1.0000
  H   H18       1.0  0.90008  0.02879  0.03297  1.0000
