data_image0
_chemical_formula_structural       C2NCNC6NCOC4OC7N2CONCH28
_chemical_formula_sum              "C23 N6 O3 H28"
_cell_length_a       30
_cell_length_b       30
_cell_length_c       30
_cell_angle_alpha    90
_cell_angle_beta     90
_cell_angle_gamma    90

_space_group_name_H-M_alt    "P 1"
_space_group_IT_number       1

loop_
  _space_group_symop_operation_xyz
  'x, y, z'

loop_
  _atom_site_type_symbol
  _atom_site_label
  _atom_site_symmetry_multiplicity
  _atom_site_fract_x
  _atom_site_fract_y
  _atom_site_fract_z
  _atom_site_occupancy
  C   C1        1.0  0.92006  0.98260  0.11341  1.0000
  C   C2        1.0  0.93461  0.97923  0.06510  1.0000
  N   N1        1.0  0.92531  0.01313  0.04014  1.0000
  C   C3        1.0  0.93291  0.01240  0.99520  1.0000
  N   N2        1.0  0.90175  0.99328  0.96716  1.0000
  C   C4        1.0  0.91129  0.98856  0.91964  1.0000
  C   C5        1.0  0.89471  0.02863  0.89293  1.0000
  C   C6        1.0  0.85140  0.04971  0.90949  1.0000
  C   C7        1.0  0.81272  0.01744  0.91671  1.0000
  C   C8        1.0  0.82166  0.97699  0.94660  1.0000
  C   C9        1.0  0.85652  0.98393  0.98315  1.0000
  N   N3        1.0  0.96869  0.03105  0.97965  1.0000
  C   C10       1.0  0.99803  0.04720  0.01089  1.0000
  O   O1        1.0  0.00146  0.08710  0.01981  1.0000
  C   C11       1.0  0.02644  0.01111  0.03489  1.0000
  C   C12       1.0  0.07497  0.02291  0.03205  1.0000
  C   C13       1.0  0.09842  0.05574  0.05420  1.0000
  C   C14       1.0  0.08698  0.09090  0.08651  1.0000
  O   O2        1.0  0.14191  0.05335  0.04097  1.0000
  C   C15       1.0  0.14306  0.01876  0.01113  1.0000
  C   C16       1.0  0.18618  0.00837  0.99101  1.0000
  C   C17       1.0  0.22455  0.03349  0.00017  1.0000
  C   C18       1.0  0.26531  0.02285  0.98026  1.0000
  C   C19       1.0  0.26822  0.98695  0.95097  1.0000
  C   C20       1.0  0.23047  0.96163  0.94155  1.0000
  C   C21       1.0  0.18974  0.97230  0.96144  1.0000
  N   N4        1.0  0.10407  0.99936  0.00485  1.0000
  N   N5        1.0  0.02086  0.96668  0.01533  1.0000
  C   C22       1.0  0.99023  0.93437  0.02178  1.0000
  O   O3        1.0  0.99411  0.89979  0.99990  1.0000
  N   N6        1.0  0.95710  0.94000  0.05383  1.0000
  C   C23       1.0  0.93677  0.89818  0.06804  1.0000
  H   H1        1.0  0.88447  0.97504  0.11581  1.0000
  H   H2        1.0  0.93894  0.95992  0.13480  1.0000
  H   H3        1.0  0.92549  0.01663  0.12541  1.0000
  H   H4        1.0  0.89658  0.95774  0.90672  1.0000
  H   H5        1.0  0.94712  0.98409  0.91371  1.0000
  H   H6        1.0  0.89097  0.01865  0.85795  1.0000
  H   H7        1.0  0.92051  0.05457  0.89332  1.0000
  H   H8        1.0  0.84096  0.07522  0.88545  1.0000
  H   H9        1.0  0.85790  0.06783  0.94058  1.0000
  H   H10       1.0  0.78509  0.03652  0.93119  1.0000
  H   H11       1.0  0.80066  0.00550  0.88435  1.0000
  H   H12       1.0  0.79004  0.96762  0.96250  1.0000
  H   H13       1.0  0.83047  0.94816  0.92590  1.0000
  H   H14       1.0  0.85766  0.95380  0.00381  1.0000
  H   H15       1.0  0.84511  0.01120  0.00468  1.0000
  H   H16       1.0  0.01619  0.00982  0.06988  1.0000
  H   H17       1.0  0.05511  0.08392  0.10282  1.0000
  H   H18       1.0  0.11248  0.09339  0.11245  1.0000
  H   H19       1.0  0.08446  0.12317  0.06977  1.0000
  H   H20       1.0  0.22300  0.06175  0.02285  1.0000
  H   H21       1.0  0.29473  0.04267  0.98762  1.0000
  H   H22       1.0  0.29989  0.97875  0.93542  1.0000
  H   H23       1.0  0.23261  0.93359  0.91874  1.0000
  H   H24       1.0  0.16049  0.95225  0.95373  1.0000
  H   H25       1.0  0.04334  0.95937  0.99114  1.0000
  H   H26       1.0  0.90823  0.90309  0.09009  1.0000
  H   H27       1.0  0.92498  0.87972  0.03878  1.0000
  H   H28       1.0  0.96201  0.87802  0.08506  1.0000
