data_image0
_chemical_formula_structural       C4NCOC4ClCClC2NCNC5H19
_chemical_formula_sum              "C18 N3 O1 Cl2 H19"
_cell_length_a       30
_cell_length_b       30
_cell_length_c       30
_cell_angle_alpha    90
_cell_angle_beta     90
_cell_angle_gamma    90

_space_group_name_H-M_alt    "P 1"
_space_group_IT_number       1

loop_
  _space_group_symop_operation_xyz
  'x, y, z'

loop_
  _atom_site_type_symbol
  _atom_site_label
  _atom_site_symmetry_multiplicity
  _atom_site_fract_x
  _atom_site_fract_y
  _atom_site_fract_z
  _atom_site_occupancy
  C   C1        1.0  0.94585  0.06208  0.93055  1.0000
  C   C2        1.0  0.96747  0.02965  0.96193  1.0000
  C   C3        1.0  0.01416  0.02889  0.96538  1.0000
  C   C4        1.0  0.03526  0.99900  0.99404  1.0000
  N   N1        1.0  0.08229  0.99944  0.99557  1.0000
  C   C5        1.0  0.10887  0.97452  0.02376  1.0000
  O   O1        1.0  0.09615  0.94990  0.05367  1.0000
  C   C6        1.0  0.15774  0.97999  0.01704  1.0000
  C   C7        1.0  0.18563  0.97869  0.05447  1.0000
  C   C8        1.0  0.23170  0.98340  0.04948  1.0000
  C   C9        1.0  0.25018  0.98901  0.00704  1.0000
  Cl  Cl1       1.0  0.30733  0.99471  0.00320  1.0000
  C   C10       1.0  0.22238  0.98966  0.96952  1.0000
  Cl  Cl2       1.0  0.24290  0.99591  0.91600  1.0000
  C   C11       1.0  0.17620  0.98504  0.97445  1.0000
  C   C12       1.0  0.00795  0.97080  0.01841  1.0000
  N   N2        1.0  0.96276  0.97097  0.01616  1.0000
  C   C13       1.0  0.94260  0.00031  0.98856  1.0000
  N   N3        1.0  0.89555  0.00144  0.98713  1.0000
  C   C14       1.0  0.87588  0.95740  0.99525  1.0000
  C   C15       1.0  0.82622  0.95908  0.98341  1.0000
  C   C16       1.0  0.80407  0.00316  0.99642  1.0000
  C   C17       1.0  0.83070  0.02735  0.03227  1.0000
  C   C18       1.0  0.87863  0.03668  0.01703  1.0000
  H   H1        1.0  0.91627  0.04769  0.91478  1.0000
  H   H2        1.0  0.96864  0.07127  0.90354  1.0000
  H   H3        1.0  0.93652  0.09247  0.94842  1.0000
  H   H4        1.0  0.03365  0.05189  0.94522  1.0000
  H   H5        1.0  0.09736  0.02197  0.97549  1.0000
  H   H6        1.0  0.17151  0.97400  0.08762  1.0000
  H   H7        1.0  0.25298  0.98248  0.07884  1.0000
  H   H8        1.0  0.15518  0.98431  0.94493  1.0000
  H   H9        1.0  0.02102  0.94610  0.04132  1.0000
  H   H10       1.0  0.89174  0.93174  0.97450  1.0000
  H   H11       1.0  0.87985  0.94738  0.03026  1.0000
  H   H12       1.0  0.82176  0.95387  0.94753  1.0000
  H   H13       1.0  0.80928  0.93128  0.99996  1.0000
  H   H14       1.0  0.76989  0.99703  0.00776  1.0000
  H   H15       1.0  0.80160  0.02460  0.96687  1.0000
  H   H16       1.0  0.83136  0.00679  0.06256  1.0000
  H   H17       1.0  0.81437  0.05873  0.04144  1.0000
  H   H18       1.0  0.89958  0.04086  0.04678  1.0000
  H   H19       1.0  0.87899  0.06845  0.99900  1.0000
