data_image0
_chemical_formula_structural       C7NCOC4OC3OC3SC4H25
_chemical_formula_sum              "C22 N1 O3 S1 H25"
_cell_length_a       30
_cell_length_b       30
_cell_length_c       30
_cell_angle_alpha    90
_cell_angle_beta     90
_cell_angle_gamma    90

_space_group_name_H-M_alt    "P 1"
_space_group_IT_number       1

loop_
  _space_group_symop_operation_xyz
  'x, y, z'

loop_
  _atom_site_type_symbol
  _atom_site_label
  _atom_site_symmetry_multiplicity
  _atom_site_fract_x
  _atom_site_fract_y
  _atom_site_fract_z
  _atom_site_occupancy
  C   C1        1.0  0.20430  0.95003  0.04790  1.0000
  C   C2        1.0  0.22161  0.97257  0.00655  1.0000
  C   C3        1.0  0.26778  0.97129  0.99836  1.0000
  C   C4        1.0  0.28587  0.99150  0.96069  1.0000
  C   C5        1.0  0.25806  0.01329  0.93078  1.0000
  C   C6        1.0  0.21214  0.01486  0.93844  1.0000
  C   C7        1.0  0.19329  0.99461  0.97602  1.0000
  N   N1        1.0  0.14694  0.99586  0.98481  1.0000
  C   C8        1.0  0.11353  0.01299  0.95803  1.0000
  O   O1        1.0  0.11734  0.02812  0.92031  1.0000
  C   C9        1.0  0.06798  0.01093  0.97780  1.0000
  C   C10       1.0  0.06053  0.01776  0.02330  1.0000
  C   C11       1.0  0.01716  0.01551  0.04018  1.0000
  C   C12       1.0  0.98091  0.00697  0.01213  1.0000
  O   O2        1.0  0.94071  0.00568  0.03343  1.0000
  C   C13       1.0  0.90073  0.00160  0.00774  1.0000
  C   C14       1.0  0.88968  0.95258  0.99970  1.0000
  C   C15       1.0  0.84410  0.94814  0.97821  1.0000
  O   O3        1.0  0.81054  0.96974  0.00398  1.0000
  C   C16       1.0  0.81771  0.01636  0.01260  1.0000
  C   C17       1.0  0.78021  0.03162  0.04396  1.0000
  C   C18       1.0  0.73724  0.03127  0.01705  1.0000
  S   S1        1.0  0.75259  0.05383  0.96319  1.0000
  C   C19       1.0  0.81226  0.04554  0.97065  1.0000
  C   C20       1.0  0.86316  0.02269  0.03511  1.0000
  C   C21       1.0  0.98840  0.00063  0.96670  1.0000
  C   C22       1.0  0.03175  0.00282  0.94956  1.0000
  H   H1        1.0  0.23124  0.93480  0.06728  1.0000
  H   H2        1.0  0.18092  0.92346  0.03900  1.0000
  H   H3        1.0  0.18769  0.97427  0.06954  1.0000
  H   H4        1.0  0.29007  0.95439  0.02145  1.0000
  H   H5        1.0  0.32158  0.99027  0.95472  1.0000
  H   H6        1.0  0.27188  0.02923  0.90133  1.0000
  H   H7        1.0  0.19188  0.03253  0.91421  1.0000
  H   H8        1.0  0.13697  0.98032  0.01293  1.0000
  H   H9        1.0  0.08770  0.02583  0.04583  1.0000
  H   H10       1.0  0.01142  0.02093  0.07559  1.0000
  H   H11       1.0  0.90331  0.02010  0.97632  1.0000
  H   H12       1.0  0.91508  0.93648  0.97902  1.0000
  H   H13       1.0  0.88998  0.93491  0.03175  1.0000
  H   H14       1.0  0.84414  0.96117  0.94414  1.0000
  H   H15       1.0  0.83505  0.91285  0.97596  1.0000
  H   H16       1.0  0.78676  0.06529  0.05674  1.0000
  H   H17       1.0  0.77677  0.00935  0.07273  1.0000
  H   H18       1.0  0.72451  0.99738  0.01263  1.0000
  H   H19       1.0  0.71130  0.05149  0.03274  1.0000
  H   H20       1.0  0.82729  0.07847  0.97532  1.0000
  H   H21       1.0  0.82600  0.03069  0.94041  1.0000
  H   H22       1.0  0.86283  0.00705  0.06824  1.0000
  H   H23       1.0  0.87033  0.05807  0.04098  1.0000
  H   H24       1.0  0.96156  0.99380  0.94348  1.0000
  H   H25       1.0  0.03724  0.99806  0.91400  1.0000
