data_image0
_chemical_formula_structural       C6NCOC2SCNC2OC2NCOSC2H23
_chemical_formula_sum              "C17 N3 O3 S2 H23"
_cell_length_a       30
_cell_length_b       30
_cell_length_c       30
_cell_angle_alpha    90
_cell_angle_beta     90
_cell_angle_gamma    90

_space_group_name_H-M_alt    "P 1"
_space_group_IT_number       1

loop_
  _space_group_symop_operation_xyz
  'x, y, z'

loop_
  _atom_site_type_symbol
  _atom_site_label
  _atom_site_symmetry_multiplicity
  _atom_site_fract_x
  _atom_site_fract_y
  _atom_site_fract_z
  _atom_site_occupancy
  C   C1        1.0  0.81128  0.92119  0.02427  1.0000
  C   C2        1.0  0.82430  0.96914  0.02055  1.0000
  C   C3        1.0  0.86642  0.98711  0.02806  1.0000
  C   C4        1.0  0.91038  0.96502  0.04083  1.0000
  C   C5        1.0  0.90555  0.93438  0.08130  1.0000
  C   C6        1.0  0.93088  0.93972  0.00103  1.0000
  N   N1        1.0  0.94360  0.96925  0.96472  1.0000
  C   C7        1.0  0.98327  0.99255  0.96608  1.0000
  O   O1        1.0  0.01192  0.98610  0.99442  1.0000
  C   C8        1.0  0.98764  0.02595  0.92841  1.0000
  C   C9        1.0  0.02908  0.05512  0.93027  1.0000
  S   S1        1.0  0.08119  0.02591  0.92136  1.0000
  C   C10       1.0  0.10307  0.04862  0.97075  1.0000
  N   N2        1.0  0.14607  0.03872  0.98324  1.0000
  C   C11       1.0  0.16207  0.05143  0.02792  1.0000
  C   C12       1.0  0.19104  0.01416  0.04762  1.0000
  O   O2        1.0  0.22967  0.00384  0.02138  1.0000
  C   C13       1.0  0.22422  0.01390  0.97501  1.0000
  C   C14       1.0  0.17604  0.00895  0.95844  1.0000
  N   N3        1.0  0.07674  0.07456  0.99294  1.0000
  C   C15       1.0  0.03495  0.07846  0.97466  1.0000
  O   O3        1.0  0.00476  0.10034  0.99152  1.0000
  S   S2        1.0  0.86659  0.04410  0.02048  1.0000
  C   C16       1.0  0.81143  0.04510  0.00749  1.0000
  C   C17       1.0  0.79287  0.00327  0.00872  1.0000
  H   H1        1.0  0.77883  0.91516  0.00868  1.0000
  H   H2        1.0  0.83547  0.89952  0.00776  1.0000
  H   H3        1.0  0.80867  0.91151  0.05934  1.0000
  H   H4        1.0  0.93397  0.99121  0.05085  1.0000
  H   H5        1.0  0.93846  0.92400  0.09326  1.0000
  H   H6        1.0  0.88694  0.90403  0.07346  1.0000
  H   H7        1.0  0.88855  0.95136  0.10879  1.0000
  H   H8        1.0  0.96062  0.92144  0.01186  1.0000
  H   H9        1.0  0.90750  0.91544  0.98706  1.0000
  H   H10       1.0  0.91851  0.98170  0.94585  1.0000
  H   H11       1.0  0.95813  0.04756  0.92982  1.0000
  H   H12       1.0  0.98632  0.00781  0.89670  1.0000
  H   H13       1.0  0.02690  0.08103  0.90463  1.0000
  H   H14       1.0  0.13438  0.05776  0.05086  1.0000
  H   H15       1.0  0.18150  0.08222  0.02490  1.0000
  H   H16       1.0  0.20264  0.02351  0.08094  1.0000
  H   H17       1.0  0.17155  0.98344  0.05107  1.0000
  H   H18       1.0  0.23616  0.04801  0.96959  1.0000
  H   H19       1.0  0.24626  0.99163  0.95631  1.0000
  H   H20       1.0  0.16496  0.97444  0.96311  1.0000
  H   H21       1.0  0.17555  0.01680  0.92280  1.0000
  H   H22       1.0  0.79511  0.07628  0.99972  1.0000
  H   H23       1.0  0.75797  0.99723  0.00158  1.0000
