data_image0
_chemical_formula_structural       C4FC4NC2H14
_chemical_formula_sum              "C10 F1 N1 H14"
_cell_length_a       30
_cell_length_b       30
_cell_length_c       30
_cell_angle_alpha    90
_cell_angle_beta     90
_cell_angle_gamma    90

_space_group_name_H-M_alt    "P 1"
_space_group_IT_number       1

loop_
  _space_group_symop_operation_xyz
  'x, y, z'

loop_
  _atom_site_type_symbol
  _atom_site_label
  _atom_site_symmetry_multiplicity
  _atom_site_fract_x
  _atom_site_fract_y
  _atom_site_fract_z
  _atom_site_occupancy
  C   C1        1.0  0.85184  0.99218  0.98791  1.0000
  C   C2        1.0  0.90040  0.99624  0.99905  1.0000
  C   C3        1.0  0.92184  0.03757  0.99667  1.0000
  C   C4        1.0  0.96670  0.04122  0.00807  1.0000
  F   F1        1.0  0.98644  0.08121  0.00510  1.0000
  C   C5        1.0  0.99115  0.00431  0.02249  1.0000
  C   C6        1.0  0.03979  0.00876  0.03407  1.0000
  C   C7        1.0  0.06972  0.00147  0.99341  1.0000
  C   C8        1.0  0.11885  0.00596  0.00597  1.0000
  N   N1        1.0  0.14708  0.99887  0.96704  1.0000
  C   C9        1.0  0.96960  0.96298  0.02511  1.0000
  C   C10       1.0  0.92456  0.95908  0.01373  1.0000
  H   H1        1.0  0.84430  0.95909  0.97448  1.0000
  H   H2        1.0  0.84221  0.01660  0.96255  1.0000
  H   H3        1.0  0.83169  0.99767  0.01782  1.0000
  H   H4        1.0  0.90410  0.06723  0.98591  1.0000
  H   H5        1.0  0.04819  0.98469  0.06031  1.0000
  H   H6        1.0  0.04594  0.04179  0.04854  1.0000
  H   H7        1.0  0.06349  0.96828  0.97929  1.0000
  H   H8        1.0  0.06134  0.02573  0.96733  1.0000
  H   H9        1.0  0.12536  0.03925  0.01945  1.0000
  H   H10       1.0  0.12757  0.98162  0.03176  1.0000
  H   H11       1.0  0.17973  0.00027  0.97630  1.0000
  H   H12       1.0  0.14196  0.96769  0.95457  1.0000
  H   H13       1.0  0.98771  0.93355  0.03607  1.0000
  H   H14       1.0  0.90843  0.92669  0.01632  1.0000
