data_image0
_chemical_formula_structural       C2NC2NC2SCN2C4SH14
_chemical_formula_sum              "C11 N4 S2 H14"
_cell_length_a       30
_cell_length_b       30
_cell_length_c       30
_cell_angle_alpha    90
_cell_angle_beta     90
_cell_angle_gamma    90

_space_group_name_H-M_alt    "P 1"
_space_group_IT_number       1

loop_
  _space_group_symop_operation_xyz
  'x, y, z'

loop_
  _atom_site_type_symbol
  _atom_site_label
  _atom_site_symmetry_multiplicity
  _atom_site_fract_x
  _atom_site_fract_y
  _atom_site_fract_z
  _atom_site_occupancy
  C   C1        1.0  0.93490  0.93990  0.02544  1.0000
  C   C2        1.0  0.89270  0.96561  0.02197  1.0000
  N   N1        1.0  0.85349  0.95253  0.03694  1.0000
  C   C3        1.0  0.82423  0.98599  0.02663  1.0000
  C   C4        1.0  0.84574  0.02023  0.00518  1.0000
  N   N2        1.0  0.88932  0.00703  0.00257  1.0000
  C   C5        1.0  0.92507  0.03281  0.98246  1.0000
  C   C6        1.0  0.94873  0.06174  0.01695  1.0000
  S   S1        1.0  0.99446  0.09327  0.99246  1.0000
  C   C7        1.0  0.03557  0.05214  0.98813  1.0000
  N   N3        1.0  0.02822  0.01011  0.99831  1.0000
  N   N4        1.0  0.06550  0.98392  0.99178  1.0000
  C   C8        1.0  0.09943  0.00759  0.97732  1.0000
  C   C9        1.0  0.14572  0.98627  0.96707  1.0000
  C   C10       1.0  0.16385  0.95107  0.99802  1.0000
  C   C11       1.0  0.18473  0.99651  0.99704  1.0000
  S   S2        1.0  0.08859  0.06304  0.96979  1.0000
  H   H1        1.0  0.94888  0.93331  0.99241  1.0000
  H   H2        1.0  0.92887  0.90777  0.04164  1.0000
  H   H3        1.0  0.95949  0.95801  0.04534  1.0000
  H   H4        1.0  0.78927  0.98361  0.03519  1.0000
  H   H5        1.0  0.83396  0.05167  0.99212  1.0000
  H   H6        1.0  0.90999  0.05347  0.95632  1.0000
  H   H7        1.0  0.94746  0.00925  0.96592  1.0000
  H   H8        1.0  0.96088  0.04205  0.04520  1.0000
  H   H9        1.0  0.92512  0.08595  0.03080  1.0000
  H   H10       1.0  0.15238  0.98195  0.93179  1.0000
  H   H11       1.0  0.18212  0.92357  0.98336  1.0000
  H   H12       1.0  0.14436  0.94191  0.02707  1.0000
  H   H13       1.0  0.17966  0.01788  0.02575  1.0000
  H   H14       1.0  0.21732  0.99984  0.98178  1.0000
