data_image0
_chemical_formula_structural       C2NCNCN2C5NCOC4NCH20
_chemical_formula_sum              "C15 N6 O1 H20"
_cell_length_a       30
_cell_length_b       30
_cell_length_c       30
_cell_angle_alpha    90
_cell_angle_beta     90
_cell_angle_gamma    90

_space_group_name_H-M_alt    "P 1"
_space_group_IT_number       1

loop_
  _space_group_symop_operation_xyz
  'x, y, z'

loop_
  _atom_site_type_symbol
  _atom_site_label
  _atom_site_symmetry_multiplicity
  _atom_site_fract_x
  _atom_site_fract_y
  _atom_site_fract_z
  _atom_site_occupancy
  C   C1        1.0  0.06956  0.06946  0.94787  1.0000
  C   C2        1.0  0.10232  0.03875  0.97098  1.0000
  N   N1        1.0  0.14337  0.05252  0.97268  1.0000
  C   C3        1.0  0.17340  0.02540  0.99308  1.0000
  N   N2        1.0  0.21638  0.03145  0.99923  1.0000
  C   C4        1.0  0.22924  0.99401  0.02118  1.0000
  N   N3        1.0  0.19725  0.96435  0.02939  1.0000
  N   N4        1.0  0.16089  0.98441  0.01135  1.0000
  C   C5        1.0  0.11675  0.96905  0.00958  1.0000
  C   C6        1.0  0.10832  0.92444  0.03084  1.0000
  C   C7        1.0  0.08537  0.99475  0.98971  1.0000
  C   C8        1.0  0.03705  0.98235  0.98396  1.0000
  C   C9        1.0  0.00832  0.99751  0.02325  1.0000
  N   N5        1.0  0.96176  0.98618  0.01649  1.0000
  C   C10       1.0  0.92834  0.01048  0.03706  1.0000
  O   O1        1.0  0.93601  0.04383  0.05948  1.0000
  C   C11       1.0  0.88165  0.99066  0.03067  1.0000
  C   C12       1.0  0.84525  0.02142  0.04596  1.0000
  C   C13       1.0  0.81175  0.02363  0.01661  1.0000
  C   C14       1.0  0.81995  0.99446  0.97728  1.0000
  N   N6        1.0  0.80987  0.01637  0.93541  1.0000
  C   C15       1.0  0.86985  0.98393  0.98130  1.0000
  H   H1        1.0  0.08523  0.10164  0.94080  1.0000
  H   H2        1.0  0.05915  0.05461  0.91625  1.0000
  H   H3        1.0  0.04051  0.07550  0.96895  1.0000
  H   H4        1.0  0.26329  0.98808  0.03159  1.0000
  H   H5        1.0  0.11994  0.92439  0.06547  1.0000
  H   H6        1.0  0.07306  0.91535  0.03175  1.0000
  H   H7        1.0  0.12600  0.89817  0.01267  1.0000
  H   H8        1.0  0.02377  0.99607  0.95282  1.0000
  H   H9        1.0  0.03363  0.94620  0.97956  1.0000
  H   H10       1.0  0.01885  0.98109  0.05415  1.0000
  H   H11       1.0  0.01138  0.03351  0.02845  1.0000
  H   H12       1.0  0.95428  0.95471  0.00684  1.0000
  H   H13       1.0  0.87978  0.95929  0.04932  1.0000
  H   H14       1.0  0.84620  0.03905  0.07745  1.0000
  H   H15       1.0  0.78172  0.04292  0.02165  1.0000
  H   H16       1.0  0.80010  0.96393  0.98024  1.0000
  H   H17       1.0  0.77686  0.02425  0.93451  1.0000
  H   H18       1.0  0.82663  0.04590  0.93378  1.0000
  H   H19       1.0  0.88990  0.00610  0.96010  1.0000
  H   H20       1.0  0.87704  0.94982  0.97030  1.0000
