data_image0
_chemical_formula_structural       C5SCNC2NCNC2ClC2ClC2NC3H18
_chemical_formula_sum              "C18 S1 N4 Cl2 H18"
_cell_length_a       30
_cell_length_b       30
_cell_length_c       30
_cell_angle_alpha    90
_cell_angle_beta     90
_cell_angle_gamma    90

_space_group_name_H-M_alt    "P 1"
_space_group_IT_number       1

loop_
  _space_group_symop_operation_xyz
  'x, y, z'

loop_
  _atom_site_type_symbol
  _atom_site_label
  _atom_site_symmetry_multiplicity
  _atom_site_fract_x
  _atom_site_fract_y
  _atom_site_fract_z
  _atom_site_occupancy
  C   C1        1.0  0.79094  0.97443  0.04123  1.0000
  C   C2        1.0  0.82916  0.98256  0.00968  1.0000
  C   C3        1.0  0.82223  0.97671  0.96390  1.0000
  C   C4        1.0  0.85633  0.98379  0.93307  1.0000
  C   C5        1.0  0.89812  0.99699  0.94918  1.0000
  S   S1        1.0  0.94587  0.00816  0.91973  1.0000
  C   C6        1.0  0.97442  0.01982  0.96848  1.0000
  N   N1        1.0  0.01824  0.03292  0.96962  1.0000
  C   C7        1.0  0.03819  0.03556  0.01467  1.0000
  C   C8        1.0  0.08251  0.06168  0.01419  1.0000
  N   N2        1.0  0.11480  0.04378  0.98135  1.0000
  C   C9        1.0  0.13804  0.00608  0.99646  1.0000
  N   N3        1.0  0.12747  0.96589  0.97865  1.0000
  C   C10       1.0  0.14948  0.92926  0.99340  1.0000
  C   C11       1.0  0.18259  0.93037  0.02542  1.0000
  Cl  Cl1       1.0  0.20888  0.88247  0.04226  1.0000
  C   C12       1.0  0.19428  0.97127  0.04336  1.0000
  C   C13       1.0  0.17211  0.00953  0.02876  1.0000
  Cl  Cl2       1.0  0.18987  0.06009  0.05020  1.0000
  C   C14       1.0  0.09474  0.03959  0.93647  1.0000
  C   C15       1.0  0.04936  0.01510  0.93575  1.0000
  N   N4        1.0  0.94957  0.01626  0.00443  1.0000
  C   C16       1.0  0.90637  0.00315  0.99439  1.0000
  C   C17       1.0  0.87160  0.99597  0.02576  1.0000
  C   C18       1.0  0.87931  0.00239  0.07495  1.0000
  H   H1        1.0  0.78300  0.00491  0.05965  1.0000
  H   H2        1.0  0.79931  0.94777  0.06469  1.0000
  H   H3        1.0  0.76075  0.96423  0.02341  1.0000
  H   H4        1.0  0.78966  0.96646  0.95156  1.0000
  H   H5        1.0  0.85055  0.97921  0.89765  1.0000
  H   H6        1.0  0.04368  0.00179  0.02763  1.0000
  H   H7        1.0  0.01574  0.05288  0.03778  1.0000
  H   H8        1.0  0.09617  0.06256  0.04803  1.0000
  H   H9        1.0  0.07561  0.09644  0.00506  1.0000
  H   H10       1.0  0.13919  0.89812  0.97804  1.0000
  H   H11       1.0  0.22060  0.97362  0.06809  1.0000
  H   H12       1.0  0.08946  0.07357  0.92393  1.0000
  H   H13       1.0  0.11804  0.02392  0.91302  1.0000
  H   H14       1.0  0.03590  0.01932  0.90205  1.0000
  H   H15       1.0  0.05378  0.97925  0.94117  1.0000
  H   H16       1.0  0.91357  0.01274  0.08202  1.0000
  H   H17       1.0  0.85712  0.02825  0.08798  1.0000
  H   H18       1.0  0.87337  0.97117  0.09287  1.0000
