data_image0
_chemical_formula_structural       C2N2C3NC5OC4SC3ClH26
_chemical_formula_sum              "C17 N3 O1 S1 Cl1 H26"
_cell_length_a       30
_cell_length_b       30
_cell_length_c       30
_cell_angle_alpha    90
_cell_angle_beta     90
_cell_angle_gamma    90

_space_group_name_H-M_alt    "P 1"
_space_group_IT_number       1

loop_
  _space_group_symop_operation_xyz
  'x, y, z'

loop_
  _atom_site_type_symbol
  _atom_site_label
  _atom_site_symmetry_multiplicity
  _atom_site_fract_x
  _atom_site_fract_y
  _atom_site_fract_z
  _atom_site_occupancy
  C   C1        1.0  0.19098  0.01428  0.92685  1.0000
  C   C2        1.0  0.16324  0.01271  0.96773  1.0000
  N   N1        1.0  0.13543  0.97853  0.97479  1.0000
  N   N2        1.0  0.11590  0.98812  0.01410  1.0000
  C   C3        1.0  0.08326  0.95698  0.03168  1.0000
  C   C4        1.0  0.03981  0.95566  0.00500  1.0000
  C   C5        1.0  0.01396  0.99959  0.00786  1.0000
  N   N3        1.0  0.97188  0.99858  0.98326  1.0000
  C   C6        1.0  0.93218  0.99118  0.01108  1.0000
  C   C7        1.0  0.88999  0.00635  0.98540  1.0000
  C   C8        1.0  0.87977  0.05679  0.98732  1.0000
  C   C9        1.0  0.91823  0.08643  0.97188  1.0000
  C   C10       1.0  0.83831  0.06687  0.95911  1.0000
  O   O1        1.0  0.86983  0.06884  0.03246  1.0000
  C   C11       1.0  0.92774  0.94244  0.02373  1.0000
  C   C12       1.0  0.92307  0.90561  0.99631  1.0000
  C   C13       1.0  0.91972  0.86503  0.02073  1.0000
  C   C14       1.0  0.92169  0.87204  0.06601  1.0000
  S   S1        1.0  0.92747  0.92721  0.07893  1.0000
  C   C15       1.0  0.13066  0.02722  0.03278  1.0000
  C   C16       1.0  0.11461  0.04482  0.07611  1.0000
  C   C17       1.0  0.16146  0.04388  0.00300  1.0000
  Cl  Cl1       1.0  0.19157  0.09159  0.00690  1.0000
  H   H1        1.0  0.18587  0.98474  0.90603  1.0000
  H   H2        1.0  0.22639  0.01589  0.93549  1.0000
  H   H3        1.0  0.18259  0.04366  0.90691  1.0000
  H   H4        1.0  0.07672  0.96516  0.06662  1.0000
  H   H5        1.0  0.09911  0.92405  0.03117  1.0000
  H   H6        1.0  0.01966  0.92826  0.01816  1.0000
  H   H7        1.0  0.04681  0.94774  0.96999  1.0000
  H   H8        1.0  0.03414  0.02603  0.99276  1.0000
  H   H9        1.0  0.00901  0.00938  0.04272  1.0000
  H   H10       1.0  0.97312  0.97625  0.95777  1.0000
  H   H11       1.0  0.93456  0.01154  0.04138  1.0000
  H   H12       1.0  0.89216  0.99550  0.95047  1.0000
  H   H13       1.0  0.86104  0.98884  0.99955  1.0000
  H   H14       1.0  0.94645  0.08492  0.99497  1.0000
  H   H15       1.0  0.90802  0.12153  0.97133  1.0000
  H   H16       1.0  0.92958  0.07742  0.93839  1.0000
  H   H17       1.0  0.84402  0.05960  0.92381  1.0000
  H   H18       1.0  0.82856  0.10194  0.96233  1.0000
  H   H19       1.0  0.80967  0.04721  0.97044  1.0000
  H   H20       1.0  0.84252  0.05371  0.04118  1.0000
  H   H21       1.0  0.92215  0.90769  0.96027  1.0000
  H   H22       1.0  0.91599  0.83236  0.00582  1.0000
  H   H23       1.0  0.91991  0.84740  0.09226  1.0000
  H   H24       1.0  0.12899  0.07753  0.08344  1.0000
  H   H25       1.0  0.12387  0.02230  0.10329  1.0000
  H   H26       1.0  0.07832  0.04860  0.07596  1.0000
