data_image0
_chemical_formula_structural       C5ONC4NC2ONC10H31
_chemical_formula_sum              "C21 O2 N3 H31"
_cell_length_a       30
_cell_length_b       30
_cell_length_c       30
_cell_angle_alpha    90
_cell_angle_beta     90
_cell_angle_gamma    90

_space_group_name_H-M_alt    "P 1"
_space_group_IT_number       1

loop_
  _space_group_symop_operation_xyz
  'x, y, z'

loop_
  _atom_site_type_symbol
  _atom_site_label
  _atom_site_symmetry_multiplicity
  _atom_site_fract_x
  _atom_site_fract_y
  _atom_site_fract_z
  _atom_site_occupancy
  C   C1        1.0  0.87439  0.86628  0.94898  1.0000
  C   C2        1.0  0.89275  0.91245  0.95504  1.0000
  C   C3        1.0  0.87910  0.94701  0.92984  1.0000
  C   C4        1.0  0.89884  0.99304  0.93492  1.0000
  C   C5        1.0  0.86285  0.02515  0.95164  1.0000
  O   O1        1.0  0.84639  0.05389  0.92749  1.0000
  N   N1        1.0  0.84977  0.01844  0.99520  1.0000
  C   C6        1.0  0.81818  0.04736  0.01760  1.0000
  C   C7        1.0  0.79373  0.02191  0.05424  1.0000
  C   C8        1.0  0.84184  0.08827  0.03660  1.0000
  C   C9        1.0  0.94024  0.99381  0.96551  1.0000
  N   N2        1.0  0.93431  0.96446  0.00458  1.0000
  C   C10       1.0  0.96987  0.96961  0.03825  1.0000
  C   C11       1.0  0.01789  0.96570  0.02031  1.0000
  O   O2        1.0  0.02911  0.93616  0.99432  1.0000
  N   N3        1.0  0.04577  0.99827  0.03771  1.0000
  C   C12       1.0  0.09134  0.00507  0.02830  1.0000
  C   C13       1.0  0.11529  0.98106  0.99654  1.0000
  C   C14       1.0  0.16058  0.98978  0.98940  1.0000
  C   C15       1.0  0.18288  0.02282  0.01375  1.0000
  C   C16       1.0  0.23212  0.03115  0.00561  1.0000
  C   C17       1.0  0.26004  0.01702  0.04594  1.0000
  C   C18       1.0  0.24157  0.07970  0.99326  1.0000
  C   C19       1.0  0.15869  0.04690  0.04554  1.0000
  C   C20       1.0  0.11342  0.03822  0.05260  1.0000
  C   C21       1.0  0.92798  0.91770  0.99088  1.0000
  H   H1        1.0  0.84875  0.86495  0.92297  1.0000
  H   H2        1.0  0.85923  0.85447  0.98007  1.0000
  H   H3        1.0  0.90108  0.84325  0.93950  1.0000
  H   H4        1.0  0.85357  0.94276  0.90446  1.0000
  H   H5        1.0  0.90920  0.00483  0.90182  1.0000
  H   H6        1.0  0.86781  0.99594  0.01320  1.0000
  H   H7        1.0  0.79366  0.05857  0.99292  1.0000
  H   H8        1.0  0.81657  0.01072  0.08037  1.0000
  H   H9        1.0  0.77727  0.99223  0.04057  1.0000
  H   H10       1.0  0.76813  0.04294  0.06973  1.0000
  H   H11       1.0  0.81779  0.11132  0.05157  1.0000
  H   H12       1.0  0.85993  0.10628  0.01043  1.0000
  H   H13       1.0  0.86604  0.07881  0.06231  1.0000
  H   H14       1.0  0.96944  0.98343  0.94600  1.0000
  H   H15       1.0  0.94639  0.02815  0.97661  1.0000
  H   H16       1.0  0.96530  0.00233  0.05393  1.0000
  H   H17       1.0  0.96588  0.94497  0.06500  1.0000
  H   H18       1.0  0.03269  0.01877  0.06109  1.0000
  H   H19       1.0  0.09987  0.95513  0.97653  1.0000
  H   H20       1.0  0.17834  0.97007  0.96468  1.0000
  H   H21       1.0  0.24284  0.01072  0.97719  1.0000
  H   H22       1.0  0.29567  0.02046  0.03882  1.0000
  H   H23       1.0  0.25376  0.98217  0.05468  1.0000
  H   H24       1.0  0.25260  0.03731  0.07538  1.0000
  H   H25       1.0  0.22136  0.09008  0.96469  1.0000
  H   H26       1.0  0.27673  0.08403  0.98432  1.0000
  H   H27       1.0  0.23439  0.10252  0.02083  1.0000
  H   H28       1.0  0.17488  0.07260  0.06537  1.0000
  H   H29       1.0  0.09595  0.05776  0.07763  1.0000
  H   H30       1.0  0.95871  0.90240  0.97860  1.0000
  H   H31       1.0  0.91723  0.89881  0.02030  1.0000
