data_image0
_chemical_formula_structural       C4ClC4OC2OC3O2H17
_chemical_formula_sum              "C13 Cl1 O4 H17"
_cell_length_a       30
_cell_length_b       30
_cell_length_c       30
_cell_angle_alpha    90
_cell_angle_beta     90
_cell_angle_gamma    90

_space_group_name_H-M_alt    "P 1"
_space_group_IT_number       1

loop_
  _space_group_symop_operation_xyz
  'x, y, z'

loop_
  _atom_site_type_symbol
  _atom_site_label
  _atom_site_symmetry_multiplicity
  _atom_site_fract_x
  _atom_site_fract_y
  _atom_site_fract_z
  _atom_site_occupancy
  C   C1        1.0  0.93089  0.07763  0.99682  1.0000
  C   C2        1.0  0.93023  0.02912  0.98439  1.0000
  C   C3        1.0  0.90611  0.01595  0.94653  1.0000
  C   C4        1.0  0.90340  0.97109  0.93479  1.0000
  Cl  Cl1       1.0  0.87366  0.95562  0.88825  1.0000
  C   C5        1.0  0.92412  0.93865  0.96073  1.0000
  C   C6        1.0  0.94849  0.95091  0.99867  1.0000
  C   C7        1.0  0.97024  0.91538  0.02650  1.0000
  C   C8        1.0  0.95314  0.99641  0.00896  1.0000
  O   O1        1.0  0.97798  0.00751  0.04564  1.0000
  C   C9        1.0  0.02017  0.02741  0.03456  1.0000
  C   C10       1.0  0.03421  0.05429  0.07533  1.0000
  O   O2        1.0  0.05413  0.99467  0.02743  1.0000
  C   C11       1.0  0.06581  0.98867  0.98172  1.0000
  C   C12       1.0  0.09685  0.94845  0.97984  1.0000
  C   C13       1.0  0.08918  0.02888  0.96039  1.0000
  O   O3        1.0  0.09677  0.06489  0.97780  1.0000
  O   O4        1.0  0.10012  0.02212  0.91727  1.0000
  H   H1        1.0  0.89934  0.09367  0.98785  1.0000
  H   H2        1.0  0.93503  0.08210  0.03279  1.0000
  H   H3        1.0  0.95796  0.09477  0.97940  1.0000
  H   H4        1.0  0.88891  0.04076  0.92644  1.0000
  H   H5        1.0  0.92107  0.90370  0.95161  1.0000
  H   H6        1.0  0.00473  0.91044  0.01591  1.0000
  H   H7        1.0  0.95252  0.88362  0.02320  1.0000
  H   H8        1.0  0.96966  0.92412  0.06193  1.0000
  H   H9        1.0  0.01723  0.05038  0.00632  1.0000
  H   H10       1.0  0.03733  0.03264  0.10460  1.0000
  H   H11       1.0  0.06661  0.07019  0.07003  1.0000
  H   H12       1.0  0.00944  0.07987  0.08328  1.0000
  H   H13       1.0  0.03566  0.98168  0.96236  1.0000
  H   H14       1.0  0.12795  0.95527  0.99778  1.0000
  H   H15       1.0  0.10535  0.93948  0.94552  1.0000
  H   H16       1.0  0.08155  0.91947  0.99588  1.0000
  H   H17       1.0  0.11417  0.05017  0.90810  1.0000
