data_image0
_chemical_formula_structural       C2NOCNC5FC5ONC2SCONC2H15
_chemical_formula_sum              "C18 N4 O3 F1 S1 H15"
_cell_length_a       30
_cell_length_b       30
_cell_length_c       30
_cell_angle_alpha    90
_cell_angle_beta     90
_cell_angle_gamma    90

_space_group_name_H-M_alt    "P 1"
_space_group_IT_number       1

loop_
  _space_group_symop_operation_xyz
  'x, y, z'

loop_
  _atom_site_type_symbol
  _atom_site_label
  _atom_site_symmetry_multiplicity
  _atom_site_fract_x
  _atom_site_fract_y
  _atom_site_fract_z
  _atom_site_occupancy
  C   C1        1.0  0.93092  0.88834  0.97399  1.0000
  C   C2        1.0  0.97870  0.90000  0.96943  1.0000
  N   N1        1.0  0.00581  0.87340  0.94596  1.0000
  O   O1        1.0  0.04784  0.89239  0.94903  1.0000
  C   C3        1.0  0.04575  0.93035  0.97382  1.0000
  N   N2        1.0  0.08119  0.95619  0.98298  1.0000
  C   C4        1.0  0.07246  0.99224  0.00876  1.0000
  C   C5        1.0  0.11184  0.02006  0.01959  1.0000
  C   C6        1.0  0.10871  0.06652  0.02600  1.0000
  C   C7        1.0  0.14633  0.09214  0.03623  1.0000
  C   C8        1.0  0.18763  0.07168  0.04005  1.0000
  F   F1        1.0  0.22359  0.09626  0.04979  1.0000
  C   C9        1.0  0.19209  0.02611  0.03374  1.0000
  C   C10       1.0  0.15446  0.00058  0.02353  1.0000
  C   C11       1.0  0.02982  0.00270  0.02406  1.0000
  C   C12       1.0  0.99395  0.97545  0.01213  1.0000
  C   C13       1.0  0.94913  0.98702  0.02758  1.0000
  O   O2        1.0  0.94212  0.98475  0.06781  1.0000
  N   N3        1.0  0.91786  0.99994  0.99575  1.0000
  C   C14       1.0  0.92712  0.01655  0.95094  1.0000
  C   C15       1.0  0.94174  0.06512  0.95227  1.0000
  S   S1        1.0  0.91526  0.09924  0.99461  1.0000
  C   C16       1.0  0.87196  0.06505  0.01488  1.0000
  O   O3        1.0  0.83849  0.08245  0.03056  1.0000
  N   N4        1.0  0.87793  0.01932  0.01163  1.0000
  C   C17       1.0  0.84590  0.98794  0.02954  1.0000
  C   C18       1.0  0.00206  0.93715  0.98693  1.0000
  H   H1        1.0  0.91965  0.89311  0.00835  1.0000
  H   H2        1.0  0.91060  0.90927  0.95208  1.0000
  H   H3        1.0  0.92478  0.85347  0.96512  1.0000
  H   H4        1.0  0.07699  0.08375  0.02261  1.0000
  H   H5        1.0  0.14361  0.12790  0.04107  1.0000
  H   H6        1.0  0.22465  0.01062  0.03671  1.0000
  H   H7        1.0  0.15860  0.96482  0.01863  1.0000
  H   H8        1.0  0.02400  0.03132  0.04550  1.0000
  H   H9        1.0  0.89670  0.01284  0.93094  1.0000
  H   H10       1.0  0.95274  0.99630  0.93477  1.0000
  H   H11       1.0  0.97762  0.06673  0.95887  1.0000
  H   H12       1.0  0.93652  0.08048  0.91957  1.0000
  H   H13       1.0  0.84820  0.95607  0.01197  1.0000
  H   H14       1.0  0.85250  0.98319  0.06507  1.0000
  H   H15       1.0  0.81214  0.00120  0.02575  1.0000
