data_image0
_chemical_formula_structural       C2N2C3NC9ON2C10NH18
_chemical_formula_sum              "C24 N6 O1 H18"
_cell_length_a       30
_cell_length_b       30
_cell_length_c       30
_cell_angle_alpha    90
_cell_angle_beta     90
_cell_angle_gamma    90

_space_group_name_H-M_alt    "P 1"
_space_group_IT_number       1

loop_
  _space_group_symop_operation_xyz
  'x, y, z'

loop_
  _atom_site_type_symbol
  _atom_site_label
  _atom_site_symmetry_multiplicity
  _atom_site_fract_x
  _atom_site_fract_y
  _atom_site_fract_z
  _atom_site_occupancy
  C   C1        1.0  0.83411  0.09606  0.95275  1.0000
  C   C2        1.0  0.86793  0.06287  0.96709  1.0000
  N   N1        1.0  0.90962  0.06621  0.95188  1.0000
  N   N2        1.0  0.93189  0.03105  0.97004  1.0000
  C   C3        1.0  0.97745  0.01951  0.96446  1.0000
  C   C4        1.0  0.99263  0.98333  0.98610  1.0000
  C   C5        1.0  0.96021  0.95812  0.01340  1.0000
  N   N3        1.0  0.91850  0.96808  0.01902  1.0000
  C   C6        1.0  0.90364  0.00535  0.99715  1.0000
  C   C7        1.0  0.86233  0.02584  0.99588  1.0000
  C   C8        1.0  0.82324  0.01045  0.02001  1.0000
  C   C9        1.0  0.80985  0.96577  0.01782  1.0000
  C   C10       1.0  0.77190  0.95132  0.04061  1.0000
  C   C11       1.0  0.74704  0.98139  0.06581  1.0000
  C   C12       1.0  0.76013  0.02589  0.06834  1.0000
  C   C13       1.0  0.79808  0.04038  0.04555  1.0000
  C   C14       1.0  0.03961  0.96998  0.98132  1.0000
  O   O1        1.0  0.05212  0.93395  0.99633  1.0000
  N   N4        1.0  0.06586  0.00082  0.95878  1.0000
  N   N5        1.0  0.10960  0.99163  0.94849  1.0000
  C   C15       1.0  0.13761  0.98701  0.98112  1.0000
  C   C16       1.0  0.13017  0.99415  0.03049  1.0000
  C   C17       1.0  0.17703  0.99364  0.05125  1.0000
  C   C18       1.0  0.20655  0.97825  0.01419  1.0000
  C   C19       1.0  0.25170  0.96869  0.01626  1.0000
  C   C20       1.0  0.27356  0.95588  0.97710  1.0000
  C   C21       1.0  0.25038  0.95296  0.93650  1.0000
  C   C22       1.0  0.20497  0.96278  0.93453  1.0000
  C   C23       1.0  0.18413  0.97519  0.97375  1.0000
  C   C24       1.0  0.04609  0.03485  0.93525  1.0000
  N   N6        1.0  0.00434  0.04520  0.93712  1.0000
  H   H1        1.0  0.80184  0.08008  0.94684  1.0000
  H   H2        1.0  0.84404  0.11259  0.92175  1.0000
  H   H3        1.0  0.82985  0.12168  0.97838  1.0000
  H   H4        1.0  0.97340  0.92828  0.03038  1.0000
  H   H5        1.0  0.82893  0.94185  0.99836  1.0000
  H   H6        1.0  0.76189  0.91656  0.03872  1.0000
  H   H7        1.0  0.71757  0.97010  0.08360  1.0000
  H   H8        1.0  0.74091  0.04933  0.08818  1.0000
  H   H9        1.0  0.80801  0.07511  0.04838  1.0000
  H   H10       1.0  0.11324  0.02583  0.03678  1.0000
  H   H11       1.0  0.11025  0.96699  0.04436  1.0000
  H   H12       1.0  0.17841  0.97102  0.07983  1.0000
  H   H13       1.0  0.18667  0.02717  0.06201  1.0000
  H   H14       1.0  0.26994  0.97111  0.04743  1.0000
  H   H15       1.0  0.30899  0.94815  0.97802  1.0000
  H   H16       1.0  0.26800  0.94295  0.90643  1.0000
  H   H17       1.0  0.18662  0.96061  0.90345  1.0000
  H   H18       1.0  0.06919  0.05396  0.91399  1.0000
