data_image0
_chemical_formula_structural       C7ONC3NC5NCN2C2OC3H25
_chemical_formula_sum              "C21 O2 N5 H25"
_cell_length_a       30
_cell_length_b       30
_cell_length_c       30
_cell_angle_alpha    90
_cell_angle_beta     90
_cell_angle_gamma    90

_space_group_name_H-M_alt    "P 1"
_space_group_IT_number       1

loop_
  _space_group_symop_operation_xyz
  'x, y, z'

loop_
  _atom_site_type_symbol
  _atom_site_label
  _atom_site_symmetry_multiplicity
  _atom_site_fract_x
  _atom_site_fract_y
  _atom_site_fract_z
  _atom_site_occupancy
  C   C1        1.0  0.83782  0.85728  0.02086  1.0000
  C   C2        1.0  0.86387  0.88810  0.99133  1.0000
  C   C3        1.0  0.86597  0.88068  0.94531  1.0000
  C   C4        1.0  0.88906  0.91013  0.91766  1.0000
  C   C5        1.0  0.91026  0.94741  0.93570  1.0000
  C   C6        1.0  0.90844  0.95525  0.98168  1.0000
  C   C7        1.0  0.93026  0.99466  0.00254  1.0000
  O   O1        1.0  0.91654  0.00958  0.03801  1.0000
  N   N1        1.0  0.96668  0.01191  0.98036  1.0000
  C   C8        1.0  0.99433  0.04591  0.00069  1.0000
  C   C9        1.0  0.02931  0.02104  0.02942  1.0000
  C   C10       1.0  0.05953  0.05049  0.05775  1.0000
  N   N2        1.0  0.08429  0.02470  0.09102  1.0000
  C   C11       1.0  0.11637  0.99512  0.07559  1.0000
  C   C12       1.0  0.15070  0.00793  0.04720  1.0000
  C   C13       1.0  0.18203  0.97636  0.03352  1.0000
  C   C14       1.0  0.17839  0.93275  0.04885  1.0000
  C   C15       1.0  0.20948  0.89912  0.03595  1.0000
  N   N3        1.0  0.23466  0.87175  0.02533  1.0000
  C   C16       1.0  0.14347  0.92289  0.07736  1.0000
  N   N4        1.0  0.11270  0.95309  0.09093  1.0000
  N   N5        1.0  0.01490  0.07294  0.96503  1.0000
  C   C17       1.0  0.98851  0.07713  0.92318  1.0000
  C   C18       1.0  0.94587  0.10510  0.92791  1.0000
  O   O2        1.0  0.95664  0.14955  0.94155  1.0000
  C   C19       1.0  0.98031  0.14894  0.98291  1.0000
  C   C20       1.0  0.02262  0.11979  0.98009  1.0000
  C   C21       1.0  0.88477  0.92585  0.00922  1.0000
  H   H1        1.0  0.85247  0.85581  0.05426  1.0000
  H   H2        1.0  0.83789  0.82330  0.00752  1.0000
  H   H3        1.0  0.80332  0.86881  0.02357  1.0000
  H   H4        1.0  0.84936  0.85195  0.93067  1.0000
  H   H5        1.0  0.89016  0.90415  0.88192  1.0000
  H   H6        1.0  0.92710  0.97037  0.91337  1.0000
  H   H7        1.0  0.98213  0.99235  0.95777  1.0000
  H   H8        1.0  0.97307  0.06612  0.02243  1.0000
  H   H9        1.0  0.04982  0.99978  0.00774  1.0000
  H   H10       1.0  0.01172  0.99784  0.05167  1.0000
  H   H11       1.0  0.03911  0.07462  0.07605  1.0000
  H   H12       1.0  0.08262  0.06959  0.03697  1.0000
  H   H13       1.0  0.06379  0.00607  0.11077  1.0000
  H   H14       1.0  0.15375  0.04222  0.03618  1.0000
  H   H15       1.0  0.20898  0.98620  0.01138  1.0000
  H   H16       1.0  0.13875  0.88955  0.09078  1.0000
  H   H17       1.0  0.98097  0.04459  0.90845  1.0000
  H   H18       1.0  0.01015  0.09346  0.89854  1.0000
  H   H19       1.0  0.92221  0.09048  0.95157  1.0000
  H   H20       1.0  0.92911  0.10742  0.89558  1.0000
  H   H21       1.0  0.95782  0.13778  0.00942  1.0000
  H   H22       1.0  0.98980  0.18335  0.99055  1.0000
  H   H23       1.0  0.03990  0.12118  0.01205  1.0000
  H   H24       1.0  0.04546  0.13512  0.95594  1.0000
  H   H25       1.0  0.88276  0.93245  0.04486  1.0000
