data_image0
_chemical_formula_structural       C2N2C3NCOC9NC9H18
_chemical_formula_sum              "C24 N4 O1 H18"
_cell_length_a       30
_cell_length_b       30
_cell_length_c       30
_cell_angle_alpha    90
_cell_angle_beta     90
_cell_angle_gamma    90

_space_group_name_H-M_alt    "P 1"
_space_group_IT_number       1

loop_
  _space_group_symop_operation_xyz
  'x, y, z'

loop_
  _atom_site_type_symbol
  _atom_site_label
  _atom_site_symmetry_multiplicity
  _atom_site_fract_x
  _atom_site_fract_y
  _atom_site_fract_z
  _atom_site_occupancy
  C   C1        1.0  0.25999  0.95490  0.01246  1.0000
  C   C2        1.0  0.22215  0.98615  0.01836  1.0000
  N   N1        1.0  0.22886  0.02670  0.03579  1.0000
  N   N2        1.0  0.18800  0.04510  0.03607  1.0000
  C   C3        1.0  0.15520  0.01809  0.01945  1.0000
  C   C4        1.0  0.10929  0.02493  0.01413  1.0000
  C   C5        1.0  0.08426  0.99008  0.99579  1.0000
  N   N3        1.0  0.03787  0.99273  0.98850  1.0000
  C   C6        1.0  0.00991  0.02784  0.99880  1.0000
  O   O1        1.0  0.01923  0.06260  0.01798  1.0000
  C   C7        1.0  0.96278  0.02020  0.98631  1.0000
  C   C8        1.0  0.93200  0.02066  0.02118  1.0000
  C   C9        1.0  0.88775  0.01189  0.01161  1.0000
  C   C10       1.0  0.85242  0.01125  0.04597  1.0000
  C   C11       1.0  0.81503  0.98326  0.04134  1.0000
  C   C12       1.0  0.78136  0.98196  0.07355  1.0000
  C   C13       1.0  0.78424  0.00888  0.11119  1.0000
  C   C14       1.0  0.82062  0.03715  0.11652  1.0000
  C   C15       1.0  0.85427  0.03835  0.08423  1.0000
  N   N4        1.0  0.87436  0.00253  0.96943  1.0000
  C   C16       1.0  0.90384  0.00332  0.93572  1.0000
  C   C17       1.0  0.88846  0.99479  0.89290  1.0000
  C   C18       1.0  0.91672  0.99554  0.85591  1.0000
  C   C19       1.0  0.96156  0.00529  0.86154  1.0000
  C   C20       1.0  0.97787  0.01384  0.90417  1.0000
  C   C21       1.0  0.94937  0.01246  0.94191  1.0000
  C   C22       1.0  0.10531  0.95023  0.98342  1.0000
  C   C23       1.0  0.15135  0.94407  0.98903  1.0000
  C   C24       1.0  0.17663  0.97889  0.00746  1.0000
  H   H1        1.0  0.26384  0.94613  0.97725  1.0000
  H   H2        1.0  0.29142  0.96948  0.02395  1.0000
  H   H3        1.0  0.25422  0.92425  0.03140  1.0000
  H   H4        1.0  0.18460  0.07647  0.04813  1.0000
  H   H5        1.0  0.09455  0.05635  0.02406  1.0000
  H   H6        1.0  0.02350  0.96537  0.97484  1.0000
  H   H7        1.0  0.94315  0.02704  0.05500  1.0000
  H   H8        1.0  0.81198  0.96196  0.01210  1.0000
  H   H9        1.0  0.75292  0.95998  0.06902  1.0000
  H   H10       1.0  0.75805  0.00800  0.13621  1.0000
  H   H11       1.0  0.82281  0.05853  0.14569  1.0000
  H   H12       1.0  0.88176  0.06147  0.08923  1.0000
  H   H13       1.0  0.85322  0.98762  0.88814  1.0000
  H   H14       1.0  0.90341  0.98893  0.82285  1.0000
  H   H15       1.0  0.98372  0.00658  0.83289  1.0000
  H   H16       1.0  0.01299  0.02231  0.90761  1.0000
  H   H17       1.0  0.08618  0.92295  0.96913  1.0000
  H   H18       1.0  0.16699  0.91292  0.97928  1.0000
