data_image0
_chemical_formula_structural       C8N2C8SCNCONH16
_chemical_formula_sum              "C18 N4 S1 O1 H16"
_cell_length_a       30
_cell_length_b       30
_cell_length_c       30
_cell_angle_alpha    90
_cell_angle_beta     90
_cell_angle_gamma    90

_space_group_name_H-M_alt    "P 1"
_space_group_IT_number       1

loop_
  _space_group_symop_operation_xyz
  'x, y, z'

loop_
  _atom_site_type_symbol
  _atom_site_label
  _atom_site_symmetry_multiplicity
  _atom_site_fract_x
  _atom_site_fract_y
  _atom_site_fract_z
  _atom_site_occupancy
  C   C1        1.0  0.86515  0.10668  0.99796  1.0000
  C   C2        1.0  0.89097  0.06497  0.98817  1.0000
  C   C3        1.0  0.90301  0.05437  0.94416  1.0000
  C   C4        1.0  0.92651  0.01523  0.93442  1.0000
  C   C5        1.0  0.93780  0.98585  0.96870  1.0000
  C   C6        1.0  0.92484  0.99648  0.01211  1.0000
  C   C7        1.0  0.90187  0.03541  0.02253  1.0000
  C   C8        1.0  0.93969  0.96482  0.04647  1.0000
  N   N1        1.0  0.97734  0.96642  0.06750  1.0000
  N   N2        1.0  0.00608  0.99947  0.05134  1.0000
  C   C9        1.0  0.02615  0.99059  0.01366  1.0000
  C   C10       1.0  0.05786  0.02494  0.99440  1.0000
  C   C11       1.0  0.10621  0.01469  0.00394  1.0000
  C   C12       1.0  0.13549  0.00340  0.96933  1.0000
  C   C13       1.0  0.18013  0.99390  0.97839  1.0000
  C   C14       1.0  0.19592  0.99558  0.02204  1.0000
  C   C15       1.0  0.16710  0.00675  0.05670  1.0000
  C   C16       1.0  0.12246  0.01630  0.04774  1.0000
  S   S1        1.0  0.02057  0.94140  0.98133  1.0000
  C   C17       1.0  0.96314  0.94319  0.96173  1.0000
  N   N3        1.0  0.93826  0.90422  0.97702  1.0000
  C   C18       1.0  0.92079  0.89468  0.01766  1.0000
  O   O1        1.0  0.91197  0.85560  0.02658  1.0000
  N   N4        1.0  0.91487  0.92694  0.04914  1.0000
  H   H1        1.0  0.87394  0.13322  0.97450  1.0000
  H   H2        1.0  0.82937  0.10006  0.99545  1.0000
  H   H3        1.0  0.87255  0.11901  0.03152  1.0000
  H   H4        1.0  0.89414  0.07684  0.91707  1.0000
  H   H5        1.0  0.93554  0.00810  0.90004  1.0000
  H   H6        1.0  0.89314  0.04266  0.05693  1.0000
  H   H7        1.0  0.05213  0.02777  0.95839  1.0000
  H   H8        1.0  0.04985  0.05775  0.00846  1.0000
  H   H9        1.0  0.12380  0.00179  0.93506  1.0000
  H   H10       1.0  0.20261  0.98509  0.95138  1.0000
  H   H11       1.0  0.23065  0.98808  0.02908  1.0000
  H   H12       1.0  0.17931  0.00794  0.09079  1.0000
  H   H13       1.0  0.10034  0.02479  0.07524  1.0000
  H   H14       1.0  0.96580  0.93802  0.92564  1.0000
  H   H15       1.0  0.94425  0.87585  0.95986  1.0000
  H   H16       1.0  0.91843  0.91118  0.07879  1.0000
