data_image0
_chemical_formula_structural       C3NC3NC3ClNC4ClC2H13
_chemical_formula_sum              "C15 N3 Cl2 H13"
_cell_length_a       30
_cell_length_b       30
_cell_length_c       30
_cell_angle_alpha    90
_cell_angle_beta     90
_cell_angle_gamma    90

_space_group_name_H-M_alt    "P 1"
_space_group_IT_number       1

loop_
  _space_group_symop_operation_xyz
  'x, y, z'

loop_
  _atom_site_type_symbol
  _atom_site_label
  _atom_site_symmetry_multiplicity
  _atom_site_fract_x
  _atom_site_fract_y
  _atom_site_fract_z
  _atom_site_occupancy
  C   C1        1.0  0.17009  0.97360  0.98765  1.0000
  C   C2        1.0  0.12073  0.98050  0.98966  1.0000
  C   C3        1.0  0.09230  0.94608  0.00262  1.0000
  N   N1        1.0  0.04739  0.94865  0.00652  1.0000
  C   C4        1.0  0.03101  0.98957  0.99691  1.0000
  C   C5        1.0  0.05563  0.02649  0.98392  1.0000
  C   C6        1.0  0.10197  0.02218  0.98038  1.0000
  N   N2        1.0  0.02885  0.06245  0.97684  1.0000
  C   C7        1.0  0.98771  0.04883  0.98548  1.0000
  C   C8        1.0  0.94865  0.07998  0.98897  1.0000
  C   C9        1.0  0.96080  0.12228  0.01454  1.0000
  Cl  Cl1       1.0  0.93007  0.09501  0.93430  1.0000
  N   N3        1.0  0.98672  0.00326  0.99568  1.0000
  C   C10       1.0  0.94893  0.97546  0.00378  1.0000
  C   C11       1.0  0.90910  0.98165  0.98017  1.0000
  C   C12       1.0  0.87235  0.95410  0.98833  1.0000
  C   C13       1.0  0.87534  0.92011  0.01978  1.0000
  Cl  Cl2       1.0  0.83009  0.88636  0.02972  1.0000
  C   C14       1.0  0.91491  0.91316  0.04295  1.0000
  C   C15       1.0  0.95173  0.94059  0.03483  1.0000
  H   H1        1.0  0.17805  0.93941  0.97765  1.0000
  H   H2        1.0  0.18497  0.98013  0.02031  1.0000
  H   H3        1.0  0.18538  0.99589  0.96311  1.0000
  H   H4        1.0  0.10579  0.91334  0.01063  1.0000
  H   H5        1.0  0.12208  0.05056  0.97060  1.0000
  H   H6        1.0  0.92044  0.06466  0.00616  1.0000
  H   H7        1.0  0.98742  0.14111  0.99804  1.0000
  H   H8        1.0  0.93186  0.14431  0.01777  1.0000
  H   H9        1.0  0.97235  0.11413  0.04823  1.0000
  H   H10       1.0  0.90604  0.00619  0.95375  1.0000
  H   H11       1.0  0.84173  0.95901  0.96956  1.0000
  H   H12       1.0  0.91751  0.88648  0.06732  1.0000
  H   H13       1.0  0.98200  0.93448  0.05386  1.0000
