data_image0
_chemical_formula_structural       C2N2C9OCClH19
_chemical_formula_sum              "C12 N2 O1 Cl1 H19"
_cell_length_a       30
_cell_length_b       30
_cell_length_c       30
_cell_angle_alpha    90
_cell_angle_beta     90
_cell_angle_gamma    90

_space_group_name_H-M_alt    "P 1"
_space_group_IT_number       1

loop_
  _space_group_symop_operation_xyz
  'x, y, z'

loop_
  _atom_site_type_symbol
  _atom_site_label
  _atom_site_symmetry_multiplicity
  _atom_site_fract_x
  _atom_site_fract_y
  _atom_site_fract_z
  _atom_site_occupancy
  C   C1        1.0  0.18310  0.97760  0.98485  1.0000
  C   C2        1.0  0.13868  0.99685  0.99486  1.0000
  N   N1        1.0  0.13206  0.01999  0.03251  1.0000
  N   N2        1.0  0.08909  0.03222  0.03021  1.0000
  C   C3        1.0  0.06755  0.01732  0.99286  1.0000
  C   C4        1.0  0.01951  0.02734  0.98411  1.0000
  C   C5        1.0  0.98721  0.99943  0.01334  1.0000
  C   C6        1.0  0.99058  0.95008  0.99950  1.0000
  C   C7        1.0  0.93823  0.01739  0.01103  1.0000
  C   C8        1.0  0.93498  0.06560  0.02818  1.0000
  C   C9        1.0  0.90432  0.98838  0.03653  1.0000
  C   C10       1.0  0.87948  0.96378  0.00027  1.0000
  C   C11       1.0  0.88123  0.99649  0.96212  1.0000
  O   O1        1.0  0.92393  0.01759  0.96506  1.0000
  C   C12       1.0  0.09934  0.99442  0.96894  1.0000
  Cl  Cl1       1.0  0.09353  0.96835  0.91913  1.0000
  H   H1        1.0  0.20718  0.98496  0.01127  1.0000
  H   H2        1.0  0.18081  0.94134  0.98153  1.0000
  H   H3        1.0  0.19616  0.99127  0.95364  1.0000
  H   H4        1.0  0.07647  0.05078  0.05552  1.0000
  H   H5        1.0  0.01200  0.02213  0.94870  1.0000
  H   H6        1.0  0.01503  0.06302  0.99025  1.0000
  H   H7        1.0  0.99805  0.00157  0.04826  1.0000
  H   H8        1.0  0.97035  0.92865  0.02094  1.0000
  H   H9        1.0  0.02476  0.93768  0.00247  1.0000
  H   H10       1.0  0.97986  0.94517  0.96495  1.0000
  H   H11       1.0  0.95234  0.08912  0.00639  1.0000
  H   H12       1.0  0.94823  0.06863  0.06204  1.0000
  H   H13       1.0  0.90025  0.07701  0.02841  1.0000
  H   H14       1.0  0.91945  0.96618  0.06119  1.0000
  H   H15       1.0  0.88045  0.00909  0.05495  1.0000
  H   H16       1.0  0.84543  0.95476  0.00963  1.0000
  H   H17       1.0  0.89718  0.93314  0.99133  1.0000
  H   H18       1.0  0.87765  0.98043  0.92960  1.0000
  H   H19       1.0  0.85553  0.02223  0.96540  1.0000
