data_image0
_chemical_formula_structural       C5ClC2NCOCSCN2CONC3H17
_chemical_formula_sum              "C14 Cl1 N4 O2 S1 H17"
_cell_length_a       30
_cell_length_b       30
_cell_length_c       30
_cell_angle_alpha    90
_cell_angle_beta     90
_cell_angle_gamma    90

_space_group_name_H-M_alt    "P 1"
_space_group_IT_number       1

loop_
  _space_group_symop_operation_xyz
  'x, y, z'

loop_
  _atom_site_type_symbol
  _atom_site_label
  _atom_site_symmetry_multiplicity
  _atom_site_fract_x
  _atom_site_fract_y
  _atom_site_fract_z
  _atom_site_occupancy
  C   C1        1.0  0.94001  0.96257  0.06705  1.0000
  C   C2        1.0  0.90738  0.97736  0.03188  1.0000
  C   C3        1.0  0.86857  0.95178  0.02567  1.0000
  C   C4        1.0  0.83715  0.96371  0.99364  1.0000
  C   C5        1.0  0.84434  0.00129  0.96755  1.0000
  Cl  Cl1       1.0  0.80550  0.01598  0.92791  1.0000
  C   C6        1.0  0.88264  0.02709  0.97316  1.0000
  C   C7        1.0  0.91454  0.01559  0.00523  1.0000
  N   N1        1.0  0.95387  0.04068  0.01193  1.0000
  C   C8        1.0  0.96776  0.07888  0.98999  1.0000
  O   O1        1.0  0.94639  0.09948  0.96178  1.0000
  C   C9        1.0  0.01226  0.09718  0.00653  1.0000
  S   S1        1.0  0.05161  0.05412  0.02322  1.0000
  C   C10       1.0  0.06316  0.02980  0.97225  1.0000
  N   N2        1.0  0.04912  0.04602  0.93462  1.0000
  N   N3        1.0  0.06520  0.01710  0.90361  1.0000
  C   C11       1.0  0.08917  0.98324  0.92391  1.0000
  O   O2        1.0  0.10745  0.95234  0.90484  1.0000
  N   N4        1.0  0.08770  0.99198  0.96891  1.0000
  C   C12       1.0  0.10985  0.96318  0.00161  1.0000
  C   C13       1.0  0.14724  0.98705  0.02663  1.0000
  C   C14       1.0  0.07699  0.94070  0.03337  1.0000
  H   H1        1.0  0.92829  0.93285  0.08472  1.0000
  H   H2        1.0  0.94466  0.98886  0.09193  1.0000
  H   H3        1.0  0.97208  0.95426  0.05177  1.0000
  H   H4        1.0  0.86253  0.92224  0.04585  1.0000
  H   H5        1.0  0.80732  0.94365  0.98920  1.0000
  H   H6        1.0  0.88676  0.05602  0.95185  1.0000
  H   H7        1.0  0.97548  0.02911  0.03513  1.0000
  H   H8        1.0  0.00539  0.11824  0.03554  1.0000
  H   H9        1.0  0.02715  0.11819  0.98069  1.0000
  H   H10       1.0  0.05945  0.02040  0.87054  1.0000
  H   H11       1.0  0.12584  0.93620  0.98276  1.0000
  H   H12       1.0  0.16647  0.96322  0.04653  1.0000
  H   H13       1.0  0.17015  0.00323  0.00326  1.0000
  H   H14       1.0  0.13472  0.01257  0.04940  1.0000
  H   H15       1.0  0.09396  0.91531  0.05338  1.0000
  H   H16       1.0  0.06163  0.96425  0.05652  1.0000
  H   H17       1.0  0.05021  0.92427  0.01476  1.0000
