data_image0
_chemical_formula_structural       C4OC2ONC4OCOC4NC2H16
_chemical_formula_sum              "C17 O4 N2 H16"
_cell_length_a       30
_cell_length_b       30
_cell_length_c       30
_cell_angle_alpha    90
_cell_angle_beta     90
_cell_angle_gamma    90

_space_group_name_H-M_alt    "P 1"
_space_group_IT_number       1

loop_
  _space_group_symop_operation_xyz
  'x, y, z'

loop_
  _atom_site_type_symbol
  _atom_site_label
  _atom_site_symmetry_multiplicity
  _atom_site_fract_x
  _atom_site_fract_y
  _atom_site_fract_z
  _atom_site_occupancy
  C   C1        1.0  0.81014  0.05457  0.01408  1.0000
  C   C2        1.0  0.85676  0.03696  0.00831  1.0000
  C   C3        1.0  0.88607  0.05946  0.98301  1.0000
  C   C4        1.0  0.93038  0.03998  0.97342  1.0000
  O   O1        1.0  0.95493  0.05923  0.94668  1.0000
  C   C5        1.0  0.94225  0.99507  0.99399  1.0000
  C   C6        1.0  0.99266  0.99188  0.00514  1.0000
  O   O2        1.0  0.00591  0.98345  0.04305  1.0000
  N   N1        1.0  0.02004  0.99881  0.96847  1.0000
  C   C7        1.0  0.06677  0.99445  0.96638  1.0000
  C   C8        1.0  0.08787  0.01051  0.92785  1.0000
  C   C9        1.0  0.13402  0.00719  0.92291  1.0000
  C   C10       1.0  0.15889  0.98754  0.95671  1.0000
  O   O3        1.0  0.20532  0.98476  0.95054  1.0000
  C   C11       1.0  0.23255  0.96552  0.98263  1.0000
  O   O4        1.0  0.27305  0.96263  0.97805  1.0000
  C   C12       1.0  0.21063  0.94835  0.02309  1.0000
  C   C13       1.0  0.16658  0.95081  0.02928  1.0000
  C   C14       1.0  0.13878  0.97112  0.99515  1.0000
  C   C15       1.0  0.09249  0.97454  0.99984  1.0000
  N   N2        1.0  0.91607  0.98632  0.03488  1.0000
  C   C16       1.0  0.86811  0.99270  0.02990  1.0000
  C   C17       1.0  0.84759  0.98678  0.07635  1.0000
  H   H1        1.0  0.80418  0.06426  0.04874  1.0000
  H   H2        1.0  0.80392  0.08396  0.99332  1.0000
  H   H3        1.0  0.78573  0.02917  0.00454  1.0000
  H   H4        1.0  0.87851  0.09086  0.96685  1.0000
  H   H5        1.0  0.93475  0.96904  0.96943  1.0000
  H   H6        1.0  0.00545  0.01459  0.94215  1.0000
  H   H7        1.0  0.06867  0.02604  0.90131  1.0000
  H   H8        1.0  0.15027  0.01981  0.89313  1.0000
  H   H9        1.0  0.23249  0.93352  0.04770  1.0000
  H   H10       1.0  0.15107  0.93803  0.05933  1.0000
  H   H11       1.0  0.07702  0.96123  0.02972  1.0000
  H   H12       1.0  0.92866  0.00503  0.06041  1.0000
  H   H13       1.0  0.85489  0.96606  0.00858  1.0000
  H   H14       1.0  0.81111  0.98618  0.07472  1.0000
  H   H15       1.0  0.85746  0.01366  0.09905  1.0000
  H   H16       1.0  0.85795  0.95507  0.09130  1.0000
