data_image0
_chemical_formula_structural       C3NCOC2F3CNC6H11
_chemical_formula_sum              "C13 N2 O1 F3 H11"
_cell_length_a       30
_cell_length_b       30
_cell_length_c       30
_cell_angle_alpha    90
_cell_angle_beta     90
_cell_angle_gamma    90

_space_group_name_H-M_alt    "P 1"
_space_group_IT_number       1

loop_
  _space_group_symop_operation_xyz
  'x, y, z'

loop_
  _atom_site_type_symbol
  _atom_site_label
  _atom_site_symmetry_multiplicity
  _atom_site_fract_x
  _atom_site_fract_y
  _atom_site_fract_z
  _atom_site_occupancy
  C   C1        1.0  0.00249  0.96027  0.93636  1.0000
  C   C2        1.0  0.98102  0.99020  0.97075  1.0000
  C   C3        1.0  0.00569  0.00580  0.00775  1.0000
  N   N1        1.0  0.05042  0.99161  0.01406  1.0000
  C   C4        1.0  0.07952  0.00460  0.04770  1.0000
  O   O1        1.0  0.07127  0.03143  0.07723  1.0000
  C   C5        1.0  0.12380  0.98145  0.04353  1.0000
  C   C6        1.0  0.15513  0.99542  0.08000  1.0000
  F   F1        1.0  0.16469  0.03928  0.07874  1.0000
  F   F2        1.0  0.19439  0.97344  0.07458  1.0000
  F   F3        1.0  0.13995  0.98470  0.12089  1.0000
  C   C7        1.0  0.98390  0.03441  0.03701  1.0000
  N   N2        1.0  0.94088  0.04740  0.03304  1.0000
  C   C8        1.0  0.91701  0.03128  0.99908  1.0000
  C   C9        1.0  0.87264  0.04414  0.99625  1.0000
  C   C10       1.0  0.84465  0.02881  0.96248  1.0000
  C   C11       1.0  0.86130  0.99973  0.93072  1.0000
  C   C12       1.0  0.90585  0.98646  0.93285  1.0000
  C   C13       1.0  0.93494  0.00206  0.96676  1.0000
  H   H1        1.0  0.00123  0.92556  0.94748  1.0000
  H   H2        1.0  0.03717  0.96978  0.93018  1.0000
  H   H3        1.0  0.98662  0.96288  0.90368  1.0000
  H   H4        1.0  0.06215  0.96898  0.99204  1.0000
  H   H5        1.0  0.11839  0.94536  0.04510  1.0000
  H   H6        1.0  0.13831  0.98958  0.01103  1.0000
  H   H7        1.0  0.99995  0.04855  0.06616  1.0000
  H   H8        1.0  0.85944  0.06677  0.02133  1.0000
  H   H9        1.0  0.81007  0.03950  0.96133  1.0000
  H   H10       1.0  0.83980  0.98727  0.90435  1.0000
  H   H11       1.0  0.91729  0.96326  0.90751  1.0000
