data_image0
_chemical_formula_structural       C4ONC2OC4ClC5NC5NH20
_chemical_formula_sum              "C20 O2 N3 Cl1 H20"
_cell_length_a       30
_cell_length_b       30
_cell_length_c       30
_cell_angle_alpha    90
_cell_angle_beta     90
_cell_angle_gamma    90

_space_group_name_H-M_alt    "P 1"
_space_group_IT_number       1

loop_
  _space_group_symop_operation_xyz
  'x, y, z'

loop_
  _atom_site_type_symbol
  _atom_site_label
  _atom_site_symmetry_multiplicity
  _atom_site_fract_x
  _atom_site_fract_y
  _atom_site_fract_z
  _atom_site_occupancy
  C   C1        1.0  0.04471  0.02510  0.08085  1.0000
  C   C2        1.0  0.08245  0.02031  0.04924  1.0000
  C   C3        1.0  0.08234  0.00830  0.00444  1.0000
  C   C4        1.0  0.04615  0.99552  0.97559  1.0000
  O   O1        1.0  0.04483  0.00433  0.93567  1.0000
  N   N1        1.0  0.01284  0.97168  0.99615  1.0000
  C   C5        1.0  0.97484  0.95327  0.97194  1.0000
  C   C6        1.0  0.92944  0.96291  0.99537  1.0000
  O   O2        1.0  0.93380  0.94530  0.03992  1.0000
  C   C7        1.0  0.91610  0.01228  0.99828  1.0000
  C   C8        1.0  0.88318  0.02572  0.02907  1.0000
  C   C9        1.0  0.86992  0.07024  0.03255  1.0000
  C   C10       1.0  0.88915  0.10216  0.00501  1.0000
  Cl  Cl1       1.0  0.87298  0.15700  0.00920  1.0000
  C   C11       1.0  0.92127  0.08982  0.97395  1.0000
  C   C12       1.0  0.93445  0.04520  0.97044  1.0000
  C   C13       1.0  0.89271  0.93801  0.97078  1.0000
  C   C14       1.0  0.88736  0.88804  0.97507  1.0000
  C   C15       1.0  0.85256  0.91850  0.99429  1.0000
  N   N2        1.0  0.12639  0.01261  0.99116  1.0000
  C   C16       1.0  0.14643  0.00568  0.94962  1.0000
  C   C17       1.0  0.19064  0.01128  0.94514  1.0000
  C   C18       1.0  0.21671  0.02436  0.98380  1.0000
  C   C19       1.0  0.19746  0.03094  0.02381  1.0000
  C   C20       1.0  0.15061  0.02510  0.02876  1.0000
  N   N3        1.0  0.12483  0.02963  0.06385  1.0000
  H   H1        1.0  0.05395  0.04666  0.10880  1.0000
  H   H2        1.0  0.01569  0.04000  0.06451  1.0000
  H   H3        1.0  0.03519  0.99258  0.09435  1.0000
  H   H4        1.0  0.01877  0.95876  0.02670  1.0000
  H   H5        1.0  0.97468  0.96456  0.93722  1.0000
  H   H6        1.0  0.98080  0.91720  0.97121  1.0000
  H   H7        1.0  0.94212  0.97018  0.05891  1.0000
  H   H8        1.0  0.86727  0.00119  0.05061  1.0000
  H   H9        1.0  0.84451  0.07962  0.05661  1.0000
  H   H10       1.0  0.93620  0.11462  0.95214  1.0000
  H   H11       1.0  0.95933  0.03712  0.94533  1.0000
  H   H12       1.0  0.88719  0.95192  0.93778  1.0000
  H   H13       1.0  0.87886  0.86928  0.94538  1.0000
  H   H14       1.0  0.90847  0.87012  0.99832  1.0000
  H   H15       1.0  0.85042  0.92058  0.03030  1.0000
  H   H16       1.0  0.82061  0.92054  0.97753  1.0000
  H   H17       1.0  0.12530  0.99596  0.92202  1.0000
  H   H18       1.0  0.20739  0.00634  0.91348  1.0000
  H   H19       1.0  0.25238  0.02875  0.97951  1.0000
  H   H20       1.0  0.21673  0.04074  0.05275  1.0000
