data_image0
_chemical_formula_structural       C6OC2NC3OC7H25
_chemical_formula_sum              "C18 O2 N1 H25"
_cell_length_a       30
_cell_length_b       30
_cell_length_c       30
_cell_angle_alpha    90
_cell_angle_beta     90
_cell_angle_gamma    90

_space_group_name_H-M_alt    "P 1"
_space_group_IT_number       1

loop_
  _space_group_symop_operation_xyz
  'x, y, z'

loop_
  _atom_site_type_symbol
  _atom_site_label
  _atom_site_symmetry_multiplicity
  _atom_site_fract_x
  _atom_site_fract_y
  _atom_site_fract_z
  _atom_site_occupancy
  C   C1        1.0  0.86280  0.06887  0.99570  1.0000
  C   C2        1.0  0.90903  0.05443  0.00945  1.0000
  C   C3        1.0  0.93296  0.08386  0.03681  1.0000
  C   C4        1.0  0.97515  0.07268  0.05147  1.0000
  C   C5        1.0  0.99475  0.03353  0.03592  1.0000
  C   C6        1.0  0.03866  0.02249  0.05524  1.0000
  O   O1        1.0  0.03941  0.99679  0.08705  1.0000
  C   C7        1.0  0.07911  0.04516  0.03521  1.0000
  C   C8        1.0  0.11891  0.01396  0.02687  1.0000
  N   N1        1.0  0.14721  0.01085  0.06680  1.0000
  C   C9        1.0  0.10712  0.96648  0.01101  1.0000
  C   C10       1.0  0.08092  0.96329  0.96710  1.0000
  C   C11       1.0  0.10836  0.97986  0.92758  1.0000
  O   O2        1.0  0.04104  0.98934  0.96794  1.0000
  C   C12       1.0  0.00175  0.96701  0.98501  1.0000
  C   C13       1.0  0.98337  0.94129  0.94495  1.0000
  C   C14       1.0  0.97306  0.00402  0.00585  1.0000
  C   C15       1.0  0.92712  0.01215  0.99667  1.0000
  C   C16       1.0  0.89626  0.97759  0.97561  1.0000
  C   C17       1.0  0.88938  0.93278  0.99823  1.0000
  C   C18       1.0  0.85243  0.96584  0.99831  1.0000
  H   H1        1.0  0.86122  0.10520  0.99220  1.0000
  H   H2        1.0  0.83831  0.05875  0.02074  1.0000
  H   H3        1.0  0.85360  0.05514  0.96318  1.0000
  H   H4        1.0  0.91802  0.11503  0.04778  1.0000
  H   H5        1.0  0.99266  0.09429  0.07468  1.0000
  H   H6        1.0  0.08837  0.07293  0.05714  1.0000
  H   H7        1.0  0.06959  0.06059  0.00344  1.0000
  H   H8        1.0  0.13981  0.02979  0.00140  1.0000
  H   H9        1.0  0.17508  0.99267  0.06014  1.0000
  H   H10       1.0  0.15760  0.04171  0.07639  1.0000
  H   H11       1.0  0.08826  0.94920  0.03711  1.0000
  H   H12       1.0  0.13804  0.94723  0.00705  1.0000
  H   H13       1.0  0.07315  0.92809  0.96110  1.0000
  H   H14       1.0  0.14034  0.96249  0.92529  1.0000
  H   H15       1.0  0.11445  0.01579  0.92956  1.0000
  H   H16       1.0  0.09002  0.97433  0.89647  1.0000
  H   H17       1.0  0.01098  0.94345  0.01141  1.0000
  H   H18       1.0  0.97015  0.96394  0.91955  1.0000
  H   H19       1.0  0.95791  0.91728  0.95446  1.0000
  H   H20       1.0  0.00942  0.92197  0.92820  1.0000
  H   H21       1.0  0.89493  0.97812  0.93936  1.0000
  H   H22       1.0  0.90618  0.92635  0.02960  1.0000
  H   H23       1.0  0.88525  0.90347  0.97751  1.0000
  H   H24       1.0  0.84408  0.98048  0.03027  1.0000
  H   H25       1.0  0.82381  0.95946  0.97720  1.0000
