data_image0
_chemical_formula_structural       C6SCONCNC3OCOC3H18
_chemical_formula_sum              "C15 S1 O3 N2 H18"
_cell_length_a       30
_cell_length_b       30
_cell_length_c       30
_cell_angle_alpha    90
_cell_angle_beta     90
_cell_angle_gamma    90

_space_group_name_H-M_alt    "P 1"
_space_group_IT_number       1

loop_
  _space_group_symop_operation_xyz
  'x, y, z'

loop_
  _atom_site_type_symbol
  _atom_site_label
  _atom_site_symmetry_multiplicity
  _atom_site_fract_x
  _atom_site_fract_y
  _atom_site_fract_z
  _atom_site_occupancy
  C   C1        1.0  0.18693  0.03207  0.02305  1.0000
  C   C2        1.0  0.16071  0.99191  0.00890  1.0000
  C   C3        1.0  0.11415  0.99150  0.01298  1.0000
  C   C4        1.0  0.08926  0.95473  0.99851  1.0000
  C   C5        1.0  0.04060  0.95336  0.00334  1.0000
  C   C6        1.0  0.01095  0.98058  0.98364  1.0000
  S   S1        1.0  0.02338  0.02161  0.94522  1.0000
  C   C7        1.0  0.99180  0.06535  0.96744  1.0000
  O   O1        1.0  0.00650  0.10347  0.96667  1.0000
  N   N1        1.0  0.95139  0.05351  0.98685  1.0000
  C   C8        1.0  0.92971  0.08386  0.01774  1.0000
  N   N2        1.0  0.93481  0.00898  0.98760  1.0000
  C   C9        1.0  0.88735  0.00350  0.97812  1.0000
  C   C10       1.0  0.86023  0.99253  0.01995  1.0000
  C   C11       1.0  0.81126  0.98548  0.00884  1.0000
  O   O2        1.0  0.79219  0.02592  0.99319  1.0000
  C   C12       1.0  0.96249  0.97210  0.99145  1.0000
  O   O3        1.0  0.94846  0.93427  0.99875  1.0000
  C   C13       1.0  0.11132  0.91801  0.98014  1.0000
  C   C14       1.0  0.15760  0.91835  0.97558  1.0000
  C   C15       1.0  0.18216  0.95523  0.98967  1.0000
  H   H1        1.0  0.22068  0.02267  0.03329  1.0000
  H   H2        1.0  0.18917  0.05584  0.99548  1.0000
  H   H3        1.0  0.17117  0.04850  0.05158  1.0000
  H   H4        1.0  0.09734  0.02015  0.02755  1.0000
  H   H5        1.0  0.02880  0.92668  0.02497  1.0000
  H   H6        1.0  0.92919  0.06878  0.05095  1.0000
  H   H7        1.0  0.89571  0.09070  0.00657  1.0000
  H   H8        1.0  0.94757  0.11556  0.01995  1.0000
  H   H9        1.0  0.87468  0.03336  0.96134  1.0000
  H   H10       1.0  0.88412  0.97596  0.95425  1.0000
  H   H11       1.0  0.87331  0.96240  0.03591  1.0000
  H   H12       1.0  0.86346  0.01974  0.04409  1.0000
  H   H13       1.0  0.79270  0.97453  0.03829  1.0000
  H   H14       1.0  0.80723  0.96013  0.98292  1.0000
  H   H15       1.0  0.78627  0.04457  0.01906  1.0000
  H   H16       1.0  0.09263  0.88905  0.96889  1.0000
  H   H17       1.0  0.17452  0.88989  0.96086  1.0000
  H   H18       1.0  0.21819  0.95515  0.98557  1.0000
