data_image0
_chemical_formula_structural       C4OC4ONC2OC8H29
_chemical_formula_sum              "C18 O3 N1 H29"
_cell_length_a       30
_cell_length_b       30
_cell_length_c       30
_cell_angle_alpha    90
_cell_angle_beta     90
_cell_angle_gamma    90

_space_group_name_H-M_alt    "P 1"
_space_group_IT_number       1

loop_
  _space_group_symop_operation_xyz
  'x, y, z'

loop_
  _atom_site_type_symbol
  _atom_site_label
  _atom_site_symmetry_multiplicity
  _atom_site_fract_x
  _atom_site_fract_y
  _atom_site_fract_z
  _atom_site_occupancy
  C   C1        1.0  0.21590  0.99821  0.06195  1.0000
  C   C2        1.0  0.18010  0.01726  0.03272  1.0000
  C   C3        1.0  0.13687  0.99967  0.03381  1.0000
  C   C4        1.0  0.10355  0.01771  0.00688  1.0000
  O   O1        1.0  0.06125  0.00117  0.00971  1.0000
  C   C5        1.0  0.04931  0.96731  0.97739  1.0000
  C   C6        1.0  0.04682  0.98574  0.92973  1.0000
  C   C7        1.0  0.07937  0.92598  0.97938  1.0000
  C   C8        1.0  0.00135  0.95375  0.99115  1.0000
  O   O2        1.0  0.98860  0.91489  0.99389  1.0000
  N   N1        1.0  0.97315  0.98957  0.99842  1.0000
  C   C9        1.0  0.92827  0.98325  0.01673  1.0000
  C   C10       1.0  0.93175  0.97598  0.06756  1.0000
  O   O3        1.0  0.95112  0.01413  0.08853  1.0000
  C   C11       1.0  0.89923  0.02389  0.00403  1.0000
  C   C12       1.0  0.84946  0.01445  0.99289  1.0000
  C   C13       1.0  0.82615  0.05957  0.98482  1.0000
  C   C14       1.0  0.82529  0.99043  0.03104  1.0000
  C   C15       1.0  0.84536  0.98649  0.95005  1.0000
  C   C16       1.0  0.11219  0.05509  0.98078  1.0000
  C   C17       1.0  0.15500  0.07315  0.97985  1.0000
  C   C18       1.0  0.18884  0.05426  0.00563  1.0000
  H   H1        1.0  0.21083  0.96243  0.06710  1.0000
  H   H2        1.0  0.21576  0.01494  0.09437  1.0000
  H   H3        1.0  0.24878  0.00237  0.04666  1.0000
  H   H4        1.0  0.12905  0.97187  0.05569  1.0000
  H   H5        1.0  0.03035  0.96212  0.90726  1.0000
  H   H6        1.0  0.08009  0.99240  0.91625  1.0000
  H   H7        1.0  0.02827  0.01719  0.92852  1.0000
  H   H8        1.0  0.06676  0.89918  0.95801  1.0000
  H   H9        1.0  0.08155  0.91308  0.01349  1.0000
  H   H10       1.0  0.11337  0.93350  0.96844  1.0000
  H   H11       1.0  0.98910  0.01770  0.00863  1.0000
  H   H12       1.0  0.91483  0.95280  0.00182  1.0000
  H   H13       1.0  0.89909  0.97020  0.08257  1.0000
  H   H14       1.0  0.95295  0.94720  0.07500  1.0000
  H   H15       1.0  0.95628  0.00610  0.11953  1.0000
  H   H16       1.0  0.90101  0.04899  0.03060  1.0000
  H   H17       1.0  0.91393  0.04018  0.97465  1.0000
  H   H18       1.0  0.82755  0.08065  0.01462  1.0000
  H   H19       1.0  0.79095  0.05498  0.97619  1.0000
  H   H20       1.0  0.84195  0.07790  0.95745  1.0000
  H   H21       1.0  0.82877  0.00874  0.06244  1.0000
  H   H22       1.0  0.78956  0.98730  0.02404  1.0000
  H   H23       1.0  0.83816  0.95664  0.03600  1.0000
  H   H24       1.0  0.81038  0.98265  0.94022  1.0000
  H   H25       1.0  0.85906  0.95294  0.95424  1.0000
  H   H26       1.0  0.86294  0.00234  0.92223  1.0000
  H   H27       1.0  0.08577  0.07052  0.96146  1.0000
  H   H28       1.0  0.16195  0.10223  0.95939  1.0000
  H   H29       1.0  0.22200  0.06893  0.00484  1.0000
