data_image0
_chemical_formula_structural       C2N2C3FC4ClC4NC4H23
_chemical_formula_sum              "C17 N3 F1 Cl1 H23"
_cell_length_a       30
_cell_length_b       30
_cell_length_c       30
_cell_angle_alpha    90
_cell_angle_beta     90
_cell_angle_gamma    90

_space_group_name_H-M_alt    "P 1"
_space_group_IT_number       1

loop_
  _space_group_symop_operation_xyz
  'x, y, z'

loop_
  _atom_site_type_symbol
  _atom_site_label
  _atom_site_symmetry_multiplicity
  _atom_site_fract_x
  _atom_site_fract_y
  _atom_site_fract_z
  _atom_site_occupancy
  C   C1        1.0  0.00787  0.09873  0.00450  1.0000
  C   C2        1.0  0.99194  0.05432  0.01936  1.0000
  N   N1        1.0  0.94851  0.04722  0.02604  1.0000
  N   N2        1.0  0.94578  0.00373  0.03706  1.0000
  C   C3        1.0  0.90208  0.98428  0.04639  1.0000
  C   C4        1.0  0.86849  0.99372  0.01029  1.0000
  C   C5        1.0  0.83476  0.02492  0.01839  1.0000
  F   F1        1.0  0.83180  0.04465  0.05840  1.0000
  C   C6        1.0  0.80320  0.03592  0.98615  1.0000
  C   C7        1.0  0.80483  0.01559  0.94452  1.0000
  C   C8        1.0  0.83798  0.98424  0.93563  1.0000
  C   C9        1.0  0.86958  0.97336  0.96825  1.0000
  Cl  Cl1       1.0  0.90886  0.93348  0.95474  1.0000
  C   C10       1.0  0.98681  0.98351  0.04053  1.0000
  C   C11       1.0  0.99296  0.93638  0.05436  1.0000
  C   C12       1.0  0.01781  0.01572  0.02854  1.0000
  C   C13       1.0  0.06736  0.01150  0.02580  1.0000
  N   N3        1.0  0.07839  0.99756  0.98055  1.0000
  C   C14       1.0  0.12536  0.98611  0.97231  1.0000
  C   C15       1.0  0.13870  0.94295  0.99655  1.0000
  C   C16       1.0  0.15717  0.02409  0.98537  1.0000
  C   C17       1.0  0.12939  0.97824  0.92172  1.0000
  H   H1        1.0  0.02759  0.11456  0.03080  1.0000
  H   H2        1.0  0.02876  0.09553  0.97475  1.0000
  H   H3        1.0  0.98007  0.12092  0.99631  1.0000
  H   H4        1.0  0.89170  0.99800  0.07863  1.0000
  H   H5        1.0  0.90565  0.94828  0.05104  1.0000
  H   H6        1.0  0.77768  0.06040  0.99382  1.0000
  H   H7        1.0  0.78047  0.02409  0.91908  1.0000
  H   H8        1.0  0.83915  0.96837  0.90305  1.0000
  H   H9        1.0  0.02828  0.92757  0.05653  1.0000
  H   H10       1.0  0.97813  0.93057  0.08719  1.0000
  H   H11       1.0  0.97749  0.91368  0.03038  1.0000
  H   H12       1.0  0.07879  0.98749  0.05077  1.0000
  H   H13       1.0  0.08263  0.04373  0.03363  1.0000
  H   H14       1.0  0.05847  0.97133  0.97208  1.0000
  H   H15       1.0  0.11589  0.91556  0.98851  1.0000
  H   H16       1.0  0.17231  0.93241  0.98681  1.0000
  H   H17       1.0  0.13886  0.94710  0.03281  1.0000
  H   H18       1.0  0.14744  0.05558  0.96959  1.0000
  H   H19       1.0  0.15803  0.02936  0.02149  1.0000
  H   H20       1.0  0.19137  0.01668  0.97482  1.0000
  H   H21       1.0  0.16363  0.96948  0.91244  1.0000
  H   H22       1.0  0.12021  0.00814  0.90281  1.0000
  H   H23       1.0  0.10774  0.95096  0.91062  1.0000
