data_image0
_chemical_formula_structural       C2NC4SNO2C2NC2NC5ONC5FC3H26
_chemical_formula_sum              "C23 N5 S1 O3 F1 H26"
_cell_length_a       30
_cell_length_b       30
_cell_length_c       30
_cell_angle_alpha    90
_cell_angle_beta     90
_cell_angle_gamma    90

_space_group_name_H-M_alt    "P 1"
_space_group_IT_number       1

loop_
  _space_group_symop_operation_xyz
  'x, y, z'

loop_
  _atom_site_type_symbol
  _atom_site_label
  _atom_site_symmetry_multiplicity
  _atom_site_fract_x
  _atom_site_fract_y
  _atom_site_fract_z
  _atom_site_occupancy
  C   C1        1.0  0.07373  0.89514  0.08361  1.0000
  C   C2        1.0  0.09484  0.93393  0.06025  1.0000
  N   N1        1.0  0.13938  0.93901  0.06670  1.0000
  C   C3        1.0  0.15935  0.97355  0.04630  1.0000
  C   C4        1.0  0.20490  0.98020  0.05179  1.0000
  C   C5        1.0  0.22686  0.01564  0.03114  1.0000
  C   C6        1.0  0.20237  0.04488  0.00478  1.0000
  S   S1        1.0  0.22901  0.08962  0.97736  1.0000
  N   N2        1.0  0.21374  0.13319  0.00888  1.0000
  O   O1        1.0  0.20843  0.09605  0.93435  1.0000
  O   O2        1.0  0.27664  0.08549  0.98293  1.0000
  C   C7        1.0  0.15668  0.03854  0.99868  1.0000
  C   C8        1.0  0.13491  0.00335  0.01922  1.0000
  N   N3        1.0  0.09093  0.99821  0.01290  1.0000
  C   C9        1.0  0.07056  0.96300  0.03306  1.0000
  C   C10       1.0  0.02031  0.95738  0.02726  1.0000
  N   N4        1.0  0.99964  0.98297  0.99052  1.0000
  C   C11       1.0  0.01250  0.96696  0.94602  1.0000
  C   C12       1.0  0.98986  0.92334  0.93211  1.0000
  C   C13       1.0  0.93927  0.92647  0.93645  1.0000
  C   C14       1.0  0.92633  0.94259  0.98310  1.0000
  C   C15       1.0  0.87621  0.94858  0.98832  1.0000
  O   O3        1.0  0.85561  0.92901  0.01781  1.0000
  N   N5        1.0  0.85625  0.97731  0.95876  1.0000
  C   C16       1.0  0.80982  0.98965  0.96279  1.0000
  C   C17       1.0  0.80524  0.03378  0.98642  1.0000
  C   C18       1.0  0.79931  0.07339  0.96221  1.0000
  C   C19       1.0  0.79571  0.11415  0.98439  1.0000
  C   C20       1.0  0.79829  0.11537  0.03064  1.0000
  F   F1        1.0  0.79476  0.15453  0.05184  1.0000
  C   C21       1.0  0.80449  0.07662  0.05520  1.0000
  C   C22       1.0  0.80801  0.03583  0.03312  1.0000
  C   C23       1.0  0.95090  0.98582  0.99505  1.0000
  H   H1        1.0  0.06243  0.87043  0.05930  1.0000
  H   H2        1.0  0.04550  0.90608  0.10393  1.0000
  H   H3        1.0  0.09768  0.87884  0.10584  1.0000
  H   H4        1.0  0.22358  0.95713  0.07258  1.0000
  H   H5        1.0  0.26256  0.01992  0.03584  1.0000
  H   H6        1.0  0.19503  0.15487  0.99051  1.0000
  H   H7        1.0  0.24119  0.14742  0.02309  1.0000
  H   H8        1.0  0.13752  0.06108  0.97771  1.0000
  H   H9        1.0  0.00571  0.96852  0.05892  1.0000
  H   H10       1.0  0.01248  0.92190  0.02366  1.0000
  H   H11       1.0  0.04870  0.96322  0.94309  1.0000
  H   H12       1.0  0.00361  0.99290  0.92178  1.0000
  H   H13       1.0  0.00224  0.89563  0.95246  1.0000
  H   H14       1.0  0.99860  0.91559  0.89749  1.0000
  H   H15       1.0  0.92413  0.89389  0.92972  1.0000
  H   H16       1.0  0.92659  0.94923  0.91081  1.0000
  H   H17       1.0  0.93593  0.91658  0.00703  1.0000
  H   H18       1.0  0.87539  0.99645  0.93872  1.0000
  H   H19       1.0  0.79625  0.99186  0.92895  1.0000
  H   H20       1.0  0.79091  0.96384  0.98038  1.0000
  H   H21       1.0  0.79730  0.07276  0.92602  1.0000
  H   H22       1.0  0.79088  0.14489  0.96595  1.0000
  H   H23       1.0  0.80659  0.07837  0.09125  1.0000
  H   H24       1.0  0.81302  0.00548  0.05242  1.0000
  H   H25       1.0  0.93947  0.01305  0.97345  1.0000
  H   H26       1.0  0.94186  0.99653  0.02885  1.0000
