data_image0
_chemical_formula_structural       C9NCONC2NCOC5OCNC2H28
_chemical_formula_sum              "C21 N4 O3 H28"
_cell_length_a       30
_cell_length_b       30
_cell_length_c       30
_cell_angle_alpha    90
_cell_angle_beta     90
_cell_angle_gamma    90

_space_group_name_H-M_alt    "P 1"
_space_group_IT_number       1

loop_
  _space_group_symop_operation_xyz
  'x, y, z'

loop_
  _atom_site_type_symbol
  _atom_site_label
  _atom_site_symmetry_multiplicity
  _atom_site_fract_x
  _atom_site_fract_y
  _atom_site_fract_z
  _atom_site_occupancy
  C   C1        1.0  0.86669  0.95930  0.06557  1.0000
  C   C2        1.0  0.83320  0.96723  0.02908  1.0000
  C   C3        1.0  0.81645  0.93035  0.00557  1.0000
  C   C4        1.0  0.78503  0.93579  0.97176  1.0000
  C   C5        1.0  0.76973  0.97817  0.96103  1.0000
  C   C6        1.0  0.78588  0.01513  0.98411  1.0000
  C   C7        1.0  0.81766  0.01030  0.01825  1.0000
  C   C8        1.0  0.83444  0.05199  0.04143  1.0000
  C   C9        1.0  0.86610  0.07972  0.01250  1.0000
  N   N1        1.0  0.90598  0.05527  0.99996  1.0000
  C   C10       1.0  0.94172  0.07755  0.98214  1.0000
  O   O1        1.0  0.94233  0.11830  0.97849  1.0000
  N   N2        1.0  0.97700  0.05057  0.96969  1.0000
  C   C11       1.0  0.97974  0.00256  0.97888  1.0000
  C   C12       1.0  0.02242  0.98074  0.96103  1.0000
  N   N3        1.0  0.06266  0.00459  0.97485  1.0000
  C   C13       1.0  0.10165  0.98018  0.98233  1.0000
  O   O2        1.0  0.10265  0.93979  0.97484  1.0000
  C   C14       1.0  0.14134  0.00314  0.99960  1.0000
  C   C15       1.0  0.18413  0.98562  0.00134  1.0000
  C   C16       1.0  0.20508  0.94266  0.98740  1.0000
  C   C17       1.0  0.25072  0.94999  0.96587  1.0000
  C   C18       1.0  0.20883  0.91098  0.02711  1.0000
  O   O3        1.0  0.21119  0.01646  0.02139  1.0000
  C   C19       1.0  0.18365  0.05112  0.03055  1.0000
  N   N4        1.0  0.14202  0.04542  0.01851  1.0000
  C   C20       1.0  0.05963  0.05350  0.97606  1.0000
  C   C21       1.0  0.01774  0.07158  0.95283  1.0000
  H   H1        1.0  0.87653  0.92418  0.06734  1.0000
  H   H2        1.0  0.89704  0.97863  0.05962  1.0000
  H   H3        1.0  0.85247  0.96840  0.09792  1.0000
  H   H4        1.0  0.82775  0.89683  0.01362  1.0000
  H   H5        1.0  0.77238  0.90688  0.95396  1.0000
  H   H6        1.0  0.74513  0.98251  0.93479  1.0000
  H   H7        1.0  0.77340  0.04804  0.97528  1.0000
  H   H8        1.0  0.80555  0.07248  0.05063  1.0000
  H   H9        1.0  0.85087  0.04367  0.07294  1.0000
  H   H10       1.0  0.84980  0.09061  0.98166  1.0000
  H   H11       1.0  0.87606  0.10974  0.03079  1.0000
  H   H12       1.0  0.89981  0.02555  0.98553  1.0000
  H   H13       1.0  0.97802  0.99851  0.01517  1.0000
  H   H14       1.0  0.95069  0.98594  0.96432  1.0000
  H   H15       1.0  0.02368  0.94590  0.97185  1.0000
  H   H16       1.0  0.02220  0.98080  0.92447  1.0000
  H   H17       1.0  0.18395  0.92680  0.96217  1.0000
  H   H18       1.0  0.26441  0.91842  0.95365  1.0000
  H   H19       1.0  0.24825  0.97285  0.93748  1.0000
  H   H20       1.0  0.27475  0.96412  0.98948  1.0000
  H   H21       1.0  0.23013  0.92486  0.05334  1.0000
  H   H22       1.0  0.17603  0.90446  0.04181  1.0000
  H   H23       1.0  0.22303  0.87895  0.01684  1.0000
  H   H24       1.0  0.19847  0.07970  0.04672  1.0000
  H   H25       1.0  0.08911  0.06783  0.96006  1.0000
  H   H26       1.0  0.05910  0.06329  0.01125  1.0000
  H   H27       1.0  0.01920  0.06416  0.91706  1.0000
  H   H28       1.0  0.01651  0.10787  0.95631  1.0000
