data_image0
_chemical_formula_structural       C5OC2ONC3NCNC5ONCH16
_chemical_formula_sum              "C17 O3 N4 H16"
_cell_length_a       30
_cell_length_b       30
_cell_length_c       30
_cell_angle_alpha    90
_cell_angle_beta     90
_cell_angle_gamma    90

_space_group_name_H-M_alt    "P 1"
_space_group_IT_number       1

loop_
  _space_group_symop_operation_xyz
  'x, y, z'

loop_
  _atom_site_type_symbol
  _atom_site_label
  _atom_site_symmetry_multiplicity
  _atom_site_fract_x
  _atom_site_fract_y
  _atom_site_fract_z
  _atom_site_occupancy
  C   C1        1.0  0.11487  0.95971  0.94273  1.0000
  C   C2        1.0  0.11434  0.97312  0.99093  1.0000
  C   C3        1.0  0.14773  0.95811  0.01993  1.0000
  C   C4        1.0  0.14858  0.97214  0.06430  1.0000
  C   C5        1.0  0.11600  0.00118  0.07996  1.0000
  O   O1        1.0  0.11988  0.01497  0.12329  1.0000
  C   C6        1.0  0.08157  0.01547  0.05187  1.0000
  C   C7        1.0  0.04698  0.04597  0.06964  1.0000
  O   O2        1.0  0.05999  0.07578  0.09473  1.0000
  N   N1        1.0  0.00197  0.04004  0.05855  1.0000
  C   C8        1.0  0.97111  0.07244  0.07762  1.0000
  C   C9        1.0  0.98319  0.99556  0.04987  1.0000
  C   C10       1.0  0.94975  0.99596  0.01165  1.0000
  N   N2        1.0  0.91527  0.97019  0.01230  1.0000
  C   C11       1.0  0.88663  0.97141  0.97545  1.0000
  N   N3        1.0  0.85150  0.94343  0.97815  1.0000
  C   C12       1.0  0.82265  0.94330  0.94348  1.0000
  C   C13       1.0  0.82716  0.96996  0.90594  1.0000
  C   C14       1.0  0.86352  0.99860  0.90364  1.0000
  C   C15       1.0  0.89356  0.99906  0.93904  1.0000
  C   C16       1.0  0.93278  0.02812  0.93998  1.0000
  O   O3        1.0  0.94068  0.05494  0.91026  1.0000
  N   N4        1.0  0.95967  0.02354  0.97659  1.0000
  C   C17       1.0  0.08170  0.00248  0.00698  1.0000
  H   H1        1.0  0.12926  0.92641  0.93863  1.0000
  H   H2        1.0  0.13455  0.98355  0.92338  1.0000
  H   H3        1.0  0.08099  0.95859  0.92919  1.0000
  H   H4        1.0  0.17374  0.93580  0.00802  1.0000
  H   H5        1.0  0.17497  0.96096  0.08645  1.0000
  H   H6        1.0  0.10196  0.04220  0.12661  1.0000
  H   H7        1.0  0.94013  0.07310  0.05846  1.0000
  H   H8        1.0  0.96409  0.06315  0.11219  1.0000
  H   H9        1.0  0.98577  0.10584  0.07708  1.0000
  H   H10       1.0  0.96660  0.98433  0.08044  1.0000
  H   H11       1.0  0.00880  0.97087  0.04222  1.0000
  H   H12       1.0  0.79479  0.92038  0.94684  1.0000
  H   H13       1.0  0.80287  0.96840  0.87920  1.0000
  H   H14       1.0  0.86838  0.02014  0.87493  1.0000
  H   H15       1.0  0.98524  0.04536  0.97936  1.0000
  H   H16       1.0  0.05678  0.01541  0.98418  1.0000
