data_image0
_chemical_formula_structural       C4FC3NCOC3NC2H17
_chemical_formula_sum              "C13 F1 N2 O1 H17"
_cell_length_a       30
_cell_length_b       30
_cell_length_c       30
_cell_angle_alpha    90
_cell_angle_beta     90
_cell_angle_gamma    90

_space_group_name_H-M_alt    "P 1"
_space_group_IT_number       1

loop_
  _space_group_symop_operation_xyz
  'x, y, z'

loop_
  _atom_site_type_symbol
  _atom_site_label
  _atom_site_symmetry_multiplicity
  _atom_site_fract_x
  _atom_site_fract_y
  _atom_site_fract_z
  _atom_site_occupancy
  C   C1        1.0  0.05956  0.07264  0.97207  1.0000
  C   C2        1.0  0.07758  0.02921  0.98939  1.0000
  C   C3        1.0  0.12385  0.02223  0.98506  1.0000
  C   C4        1.0  0.14334  0.98257  0.99894  1.0000
  F   F1        1.0  0.18732  0.97673  0.99410  1.0000
  C   C5        1.0  0.11778  0.94901  0.01759  1.0000
  C   C6        1.0  0.07204  0.95556  0.02270  1.0000
  C   C7        1.0  0.05144  0.99552  0.00923  1.0000
  N   N1        1.0  0.00520  0.99804  0.01723  1.0000
  C   C8        1.0  0.97997  0.03544  0.02335  1.0000
  O   O1        1.0  0.98783  0.07166  0.03927  1.0000
  C   C9        1.0  0.93792  0.01296  0.00280  1.0000
  C   C10       1.0  0.91895  0.03939  0.96345  1.0000
  C   C11       1.0  0.90306  0.00338  0.03897  1.0000
  N   N2        1.0  0.86431  0.97847  0.02294  1.0000
  C   C12       1.0  0.97186  0.97574  0.98830  1.0000
  C   C13       1.0  0.96354  0.92763  0.00147  1.0000
  H   H1        1.0  0.02741  0.06804  0.95554  1.0000
  H   H2        1.0  0.05670  0.09693  0.99907  1.0000
  H   H3        1.0  0.08181  0.08682  0.94678  1.0000
  H   H4        1.0  0.14518  0.04765  0.97049  1.0000
  H   H5        1.0  0.13349  0.91831  0.02846  1.0000
  H   H6        1.0  0.05258  0.92944  0.03860  1.0000
  H   H7        1.0  0.94537  0.05050  0.94081  1.0000
  H   H8        1.0  0.89578  0.01907  0.94390  1.0000
  H   H9        1.0  0.90120  0.06913  0.97501  1.0000
  H   H10       1.0  0.91793  0.98491  0.06676  1.0000
  H   H11       1.0  0.89103  0.03488  0.05309  1.0000
  H   H12       1.0  0.84708  0.99645  0.99987  1.0000
  H   H13       1.0  0.87332  0.94917  0.00852  1.0000
  H   H14       1.0  0.98137  0.97781  0.95295  1.0000
  H   H15       1.0  0.95833  0.92371  0.03736  1.0000
  H   H16       1.0  0.93421  0.91458  0.98414  1.0000
  H   H17       1.0  0.99164  0.90644  0.99182  1.0000
