data_image0
_chemical_formula_structural       C6ONC6FC6NCOC4SH21
_chemical_formula_sum              "C23 O2 N2 F1 S1 H21"
_cell_length_a       30
_cell_length_b       30
_cell_length_c       30
_cell_angle_alpha    90
_cell_angle_beta     90
_cell_angle_gamma    90

_space_group_name_H-M_alt    "P 1"
_space_group_IT_number       1

loop_
  _space_group_symop_operation_xyz
  'x, y, z'

loop_
  _atom_site_type_symbol
  _atom_site_label
  _atom_site_symmetry_multiplicity
  _atom_site_fract_x
  _atom_site_fract_y
  _atom_site_fract_z
  _atom_site_occupancy
  C   C1        1.0  0.11915  0.90069  0.04124  1.0000
  C   C2        1.0  0.07841  0.91285  0.01451  1.0000
  C   C3        1.0  0.04702  0.87913  0.00569  1.0000
  C   C4        1.0  0.00854  0.88827  0.98141  1.0000
  C   C5        1.0  0.00101  0.93139  0.96597  1.0000
  C   C6        1.0  0.96097  0.93996  0.93861  1.0000
  O   O1        1.0  0.95803  0.91901  0.90347  1.0000
  N   N1        1.0  0.92853  0.96999  0.95334  1.0000
  C   C7        1.0  0.89243  0.97988  0.92188  1.0000
  C   C8        1.0  0.84993  0.99791  0.94331  1.0000
  C   C9        1.0  0.86113  0.03720  0.97227  1.0000
  C   C10       1.0  0.83322  0.07454  0.97476  1.0000
  C   C11       1.0  0.84494  0.11043  0.00186  1.0000
  C   C12       1.0  0.88422  0.10874  0.02637  1.0000
  F   F1        1.0  0.89537  0.14330  0.05234  1.0000
  C   C13       1.0  0.91198  0.07165  0.02464  1.0000
  C   C14       1.0  0.90056  0.03530  0.99758  1.0000
  C   C15       1.0  0.92936  0.99358  0.99673  1.0000
  C   C16       1.0  0.91486  0.96223  0.03447  1.0000
  C   C17       1.0  0.03249  0.96500  0.97328  1.0000
  C   C18       1.0  0.07096  0.95650  0.99826  1.0000
  N   N2        1.0  0.10317  0.98985  0.00728  1.0000
  C   C19       1.0  0.10002  0.03544  0.99949  1.0000
  O   O2        1.0  0.06627  0.05348  0.98494  1.0000
  C   C20       1.0  0.14036  0.06065  0.01094  1.0000
  C   C21       1.0  0.17889  0.04804  0.03316  1.0000
  C   C22       1.0  0.21041  0.08349  0.03707  1.0000
  C   C23       1.0  0.19519  0.12221  0.01784  1.0000
  S   S1        1.0  0.14327  0.11591  0.99550  1.0000
  H   H1        1.0  0.12097  0.92098  0.07150  1.0000
  H   H2        1.0  0.11853  0.86570  0.05166  1.0000
  H   H3        1.0  0.14930  0.90562  0.02129  1.0000
  H   H4        1.0  0.05249  0.84528  0.01754  1.0000
  H   H5        1.0  0.98476  0.86190  0.97418  1.0000
  H   H6        1.0  0.88429  0.94997  0.90256  1.0000
  H   H7        1.0  0.90589  0.00444  0.89831  1.0000
  H   H8        1.0  0.82638  0.00746  0.91705  1.0000
  H   H9        1.0  0.83395  0.97225  0.96384  1.0000
  H   H10       1.0  0.80253  0.07596  0.95552  1.0000
  H   H11       1.0  0.82382  0.13972  0.00394  1.0000
  H   H12       1.0  0.94227  0.07147  0.04448  1.0000
  H   H13       1.0  0.96360  0.00410  0.00323  1.0000
  H   H14       1.0  0.91638  0.97896  0.06692  1.0000
  H   H15       1.0  0.93618  0.93271  0.03634  1.0000
  H   H16       1.0  0.88060  0.95048  0.02969  1.0000
  H   H17       1.0  0.02636  0.99728  0.95814  1.0000
  H   H18       1.0  0.13144  0.97919  0.02182  1.0000
  H   H19       1.0  0.18504  0.01517  0.04669  1.0000
  H   H20       1.0  0.24258  0.08071  0.05325  1.0000
  H   H21       1.0  0.21197  0.15406  0.01594  1.0000
