data_image0
_chemical_formula_structural       C4ONC4NC4ClC4ClNCOCH19
_chemical_formula_sum              "C18 O2 N3 Cl2 H19"
_cell_length_a       30
_cell_length_b       30
_cell_length_c       30
_cell_angle_alpha    90
_cell_angle_beta     90
_cell_angle_gamma    90

_space_group_name_H-M_alt    "P 1"
_space_group_IT_number       1

loop_
  _space_group_symop_operation_xyz
  'x, y, z'

loop_
  _atom_site_type_symbol
  _atom_site_label
  _atom_site_symmetry_multiplicity
  _atom_site_fract_x
  _atom_site_fract_y
  _atom_site_fract_z
  _atom_site_occupancy
  C   C1        1.0  0.83766  0.98704  0.90118  1.0000
  C   C2        1.0  0.85396  0.98844  0.94838  1.0000
  C   C3        1.0  0.83818  0.96103  0.97986  1.0000
  C   C4        1.0  0.85327  0.96411  0.02676  1.0000
  O   O1        1.0  0.83274  0.94254  0.05495  1.0000
  N   N1        1.0  0.89085  0.99027  0.03562  1.0000
  C   C5        1.0  0.90335  0.99286  0.08238  1.0000
  C   C6        1.0  0.91392  0.01349  0.00236  1.0000
  C   C7        1.0  0.95644  0.02827  0.00436  1.0000
  C   C8        1.0  0.99266  0.02209  0.03796  1.0000
  N   N2        1.0  0.03469  0.01075  0.01487  1.0000
  C   C9        1.0  0.07044  0.03287  0.03937  1.0000
  C   C10       1.0  0.11094  0.04416  0.01004  1.0000
  C   C11       1.0  0.13669  0.00342  0.99470  1.0000
  C   C12       1.0  0.13056  0.98503  0.95193  1.0000
  Cl  Cl1       1.0  0.09409  0.00765  0.91341  1.0000
  C   C13       1.0  0.15409  0.94703  0.93844  1.0000
  C   C14       1.0  0.18414  0.92654  0.96722  1.0000
  C   C15       1.0  0.19070  0.94407  0.00963  1.0000
  C   C16       1.0  0.16726  0.98204  0.02327  1.0000
  Cl  Cl2       1.0  0.17769  0.00116  0.07671  1.0000
  N   N3        1.0  0.04931  0.07177  0.05663  1.0000
  C   C17       1.0  0.00411  0.06557  0.06197  1.0000
  O   O2        1.0  0.97956  0.09021  0.08294  1.0000
  C   C18       1.0  0.88859  0.02279  0.95926  1.0000
  H   H1        1.0  0.82357  0.01934  0.89171  1.0000
  H   H2        1.0  0.86515  0.97926  0.87848  1.0000
  H   H3        1.0  0.81177  0.96176  0.89638  1.0000
  H   H4        1.0  0.81256  0.93642  0.97337  1.0000
  H   H5        1.0  0.92662  0.96586  0.08999  1.0000
  H   H6        1.0  0.91767  0.02539  0.09026  1.0000
  H   H7        1.0  0.87417  0.98882  0.10395  1.0000
  H   H8        1.0  0.96821  0.04730  0.97562  1.0000
  H   H9        1.0  0.98616  0.99650  0.06293  1.0000
  H   H10       1.0  0.03923  0.97717  0.01481  1.0000
  H   H11       1.0  0.08008  0.01240  0.06807  1.0000
  H   H12       1.0  0.13355  0.06638  0.02835  1.0000
  H   H13       1.0  0.10055  0.06472  0.98165  1.0000
  H   H14       1.0  0.14906  0.93323  0.90527  1.0000
  H   H15       1.0  0.20238  0.89707  0.95660  1.0000
  H   H16       1.0  0.21425  0.92800  0.03205  1.0000
  H   H17       1.0  0.06467  0.09513  0.07545  1.0000
  H   H18       1.0  0.87231  0.05545  0.96188  1.0000
  H   H19       1.0  0.91214  0.02457  0.93130  1.0000
