data_image0
_chemical_formula_structural       C4ON2COCNCOC14SH23
_chemical_formula_sum              "C21 O3 N3 S1 H23"
_cell_length_a       30
_cell_length_b       30
_cell_length_c       30
_cell_angle_alpha    90
_cell_angle_beta     90
_cell_angle_gamma    90

_space_group_name_H-M_alt    "P 1"
_space_group_IT_number       1

loop_
  _space_group_symop_operation_xyz
  'x, y, z'

loop_
  _atom_site_type_symbol
  _atom_site_label
  _atom_site_symmetry_multiplicity
  _atom_site_fract_x
  _atom_site_fract_y
  _atom_site_fract_z
  _atom_site_occupancy
  C   C1        1.0  0.93801  0.10001  0.10075  1.0000
  C   C2        1.0  0.90010  0.07442  0.08095  1.0000
  C   C3        1.0  0.90012  0.04599  0.04436  1.0000
  C   C4        1.0  0.93981  0.03546  0.01822  1.0000
  O   O1        1.0  0.94209  0.04105  0.97777  1.0000
  N   N1        1.0  0.97396  0.01692  0.04328  1.0000
  N   N2        1.0  0.00734  0.99350  0.01950  1.0000
  C   C5        1.0  0.00450  0.94741  0.02056  1.0000
  O   O2        1.0  0.97958  0.92737  0.04634  1.0000
  C   C6        1.0  0.03184  0.92351  0.98474  1.0000
  N   N3        1.0  0.07822  0.93759  0.98318  1.0000
  C   C7        1.0  0.09127  0.97550  0.96095  1.0000
  O   O3        1.0  0.06397  0.00065  0.94374  1.0000
  C   C8        1.0  0.14138  0.98350  0.96077  1.0000
  C   C9        1.0  0.15374  0.02138  0.92851  1.0000
  C   C10       1.0  0.20112  0.03669  0.93377  1.0000
  C   C11       1.0  0.22616  0.02668  0.96942  1.0000
  C   C12       1.0  0.20918  0.00012  0.00821  1.0000
  C   C13       1.0  0.15851  0.99397  0.00783  1.0000
  C   C14       1.0  0.85609  0.02899  0.03532  1.0000
  C   C15       1.0  0.84307  0.99732  0.00085  1.0000
  C   C16       1.0  0.86176  0.95454  0.00010  1.0000
  C   C17       1.0  0.84927  0.92411  0.96717  1.0000
  C   C18       1.0  0.81813  0.93625  0.93487  1.0000
  C   C19       1.0  0.79944  0.97880  0.93540  1.0000
  C   C20       1.0  0.81184  0.00931  0.96831  1.0000
  C   C21       1.0  0.82516  0.04456  0.06561  1.0000
  S   S1        1.0  0.84823  0.07925  0.10426  1.0000
  H   H1        1.0  0.92660  0.13002  0.11813  1.0000
  H   H2        1.0  0.96137  0.11079  0.07486  1.0000
  H   H3        1.0  0.95611  0.07916  0.12462  1.0000
  H   H4        1.0  0.96517  0.00259  0.07279  1.0000
  H   H5        1.0  0.01690  0.00782  0.98982  1.0000
  H   H6        1.0  0.03174  0.88775  0.99193  1.0000
  H   H7        1.0  0.01608  0.92915  0.95231  1.0000
  H   H8        1.0  0.10134  0.91810  0.99815  1.0000
  H   H9        1.0  0.15717  0.95261  0.94894  1.0000
  H   H10       1.0  0.14866  0.00986  0.89418  1.0000
  H   H11       1.0  0.13192  0.05035  0.93317  1.0000
  H   H12       1.0  0.21507  0.05687  0.90707  1.0000
  H   H13       1.0  0.26044  0.03835  0.97101  1.0000
  H   H14       1.0  0.22552  0.96742  0.00778  1.0000
  H   H15       1.0  0.21893  0.01653  0.03936  1.0000
  H   H16       1.0  0.14239  0.02448  0.02012  1.0000
  H   H17       1.0  0.14954  0.96758  0.03145  1.0000
  H   H18       1.0  0.88600  0.94445  0.02512  1.0000
  H   H19       1.0  0.86391  0.89098  0.96674  1.0000
  H   H20       1.0  0.80853  0.91258  0.90917  1.0000
  H   H21       1.0  0.77538  0.98835  0.91007  1.0000
  H   H22       1.0  0.79737  0.04254  0.96807  1.0000
  H   H23       1.0  0.78997  0.03683  0.06727  1.0000
