data_image0
_chemical_formula_structural       C5OC2ONC3ONC9H28
_chemical_formula_sum              "C19 O3 N2 H28"
_cell_length_a       30
_cell_length_b       30
_cell_length_c       30
_cell_angle_alpha    90
_cell_angle_beta     90
_cell_angle_gamma    90

_space_group_name_H-M_alt    "P 1"
_space_group_IT_number       1

loop_
  _space_group_symop_operation_xyz
  'x, y, z'

loop_
  _atom_site_type_symbol
  _atom_site_label
  _atom_site_symmetry_multiplicity
  _atom_site_fract_x
  _atom_site_fract_y
  _atom_site_fract_z
  _atom_site_occupancy
  C   C1        1.0  0.28391  0.03497  0.95888  1.0000
  C   C2        1.0  0.23590  0.03360  0.97275  1.0000
  C   C3        1.0  0.21447  0.07220  0.98765  1.0000
  C   C4        1.0  0.17005  0.07053  0.00150  1.0000
  C   C5        1.0  0.14648  0.03040  0.00106  1.0000
  O   O1        1.0  0.10337  0.03357  0.01547  1.0000
  C   C6        1.0  0.07779  0.99377  0.01597  1.0000
  C   C7        1.0  0.03027  0.00250  0.03253  1.0000
  O   O2        1.0  0.01517  0.03962  0.04079  1.0000
  N   N1        1.0  0.00549  0.96375  0.03768  1.0000
  C   C8        1.0  0.95713  0.96691  0.04423  1.0000
  C   C9        1.0  0.94094  0.92816  0.07276  1.0000
  C   C10       1.0  0.93519  0.96430  0.99768  1.0000
  O   O3        1.0  0.95753  0.94898  0.96641  1.0000
  N   N2        1.0  0.88928  0.97288  0.99320  1.0000
  C   C11       1.0  0.86993  0.95557  0.95112  1.0000
  C   C12       1.0  0.82177  0.93941  0.95670  1.0000
  C   C13       1.0  0.87462  0.99034  0.91363  1.0000
  C   C14       1.0  0.85685  0.03620  0.92705  1.0000
  C   C15       1.0  0.87536  0.05120  0.97218  1.0000
  C   C16       1.0  0.86798  0.01515  0.00788  1.0000
  C   C17       1.0  0.87840  0.03346  0.05410  1.0000
  C   C18       1.0  0.16786  0.99172  0.98667  1.0000
  C   C19       1.0  0.21238  0.99331  0.97277  1.0000
  H   H1        1.0  0.30540  0.02887  0.98772  1.0000
  H   H2        1.0  0.29239  0.06744  0.94450  1.0000
  H   H3        1.0  0.29084  0.00974  0.93344  1.0000
  H   H4        1.0  0.23209  0.10386  0.98857  1.0000
  H   H5        1.0  0.15363  0.10080  0.01284  1.0000
  H   H6        1.0  0.07503  0.98011  0.98217  1.0000
  H   H7        1.0  0.09298  0.96937  0.03857  1.0000
  H   H8        1.0  0.01478  0.93804  0.01776  1.0000
  H   H9        1.0  0.95055  0.99821  0.06088  1.0000
  H   H10       1.0  0.94813  0.89607  0.05682  1.0000
  H   H11       1.0  0.90491  0.92985  0.07826  1.0000
  H   H12       1.0  0.95747  0.92827  0.10531  1.0000
  H   H13       1.0  0.88876  0.92584  0.94108  1.0000
  H   H14       1.0  0.81074  0.92200  0.92655  1.0000
  H   H15       1.0  0.79818  0.96653  0.96268  1.0000
  H   H16       1.0  0.81927  0.91609  0.98468  1.0000
  H   H17       1.0  0.85766  0.97884  0.88338  1.0000
  H   H18       1.0  0.90998  0.99394  0.90498  1.0000
  H   H19       1.0  0.86554  0.06074  0.90143  1.0000
  H   H20       1.0  0.82035  0.03522  0.92866  1.0000
  H   H21       1.0  0.85903  0.08240  0.98195  1.0000
  H   H22       1.0  0.91109  0.05831  0.96884  1.0000
  H   H23       1.0  0.83219  0.00796  0.00935  1.0000
  H   H24       1.0  0.87751  0.00734  0.07950  1.0000
  H   H25       1.0  0.91041  0.05087  0.05506  1.0000
  H   H26       1.0  0.85329  0.05833  0.06345  1.0000
  H   H27       1.0  0.15107  0.95972  0.98585  1.0000
  H   H28       1.0  0.22858  0.96276  0.96187  1.0000
