data_image0
_chemical_formula_structural       C11FC3O2C2ONC7OC10FH31
_chemical_formula_sum              "C33 F2 O4 N1 H31"
_cell_length_a       30
_cell_length_b       30
_cell_length_c       30
_cell_angle_alpha    90
_cell_angle_beta     90
_cell_angle_gamma    90

_space_group_name_H-M_alt    "P 1"
_space_group_IT_number       1

loop_
  _space_group_symop_operation_xyz
  'x, y, z'

loop_
  _atom_site_type_symbol
  _atom_site_label
  _atom_site_symmetry_multiplicity
  _atom_site_fract_x
  _atom_site_fract_y
  _atom_site_fract_z
  _atom_site_occupancy
  C   C1        1.0  0.74591  0.92911  0.97207  1.0000
  C   C2        1.0  0.79226  0.94738  0.97518  1.0000
  C   C3        1.0  0.80653  0.98185  0.94715  1.0000
  C   C4        1.0  0.85011  0.99859  0.95045  1.0000
  C   C5        1.0  0.88027  0.98077  0.98139  1.0000
  C   C6        1.0  0.92596  0.99916  0.98526  1.0000
  C   C7        1.0  0.94003  0.02075  0.02223  1.0000
  C   C8        1.0  0.91486  0.02985  0.06343  1.0000
  C   C9        1.0  0.87507  0.05442  0.06319  1.0000
  C   C10       1.0  0.85325  0.06412  0.10316  1.0000
  C   C11       1.0  0.87132  0.04943  0.14325  1.0000
  F   F1        1.0  0.85084  0.05929  0.18158  1.0000
  C   C12       1.0  0.91090  0.02521  0.14407  1.0000
  C   C13       1.0  0.93270  0.01541  0.10424  1.0000
  C   C14       1.0  0.95678  0.99494  0.94592  1.0000
  O   O1        1.0  0.94393  0.98354  0.90897  1.0000
  O   O2        1.0  0.99973  0.00522  0.95667  1.0000
  C   C15       1.0  0.03010  0.00745  0.91965  1.0000
  C   C16       1.0  0.02879  0.05460  0.89972  1.0000
  O   O3        1.0  0.00645  0.06251  0.86620  1.0000
  N   N1        1.0  0.05081  0.08937  0.91798  1.0000
  C   C17       1.0  0.07533  0.09464  0.95938  1.0000
  C   C18       1.0  0.07822  0.05544  0.99123  1.0000
  C   C19       1.0  0.10150  0.01288  0.97370  1.0000
  C   C20       1.0  0.14983  0.02564  0.96255  1.0000
  C   C21       1.0  0.18822  0.02095  0.98496  1.0000
  C   C22       1.0  0.19619  0.00546  0.02950  1.0000
  C   C23       1.0  0.16782  0.98770  0.05878  1.0000
  O   O4        1.0  0.18193  0.97877  0.10221  1.0000
  C   C24       1.0  0.14267  0.96576  0.12657  1.0000
  C   C25       1.0  0.10607  0.96447  0.09323  1.0000
  C   C26       1.0  0.12168  0.97676  0.05320  1.0000
  C   C27       1.0  0.09631  0.97552  0.01022  1.0000
  C   C28       1.0  0.10432  0.93261  0.98403  1.0000
  C   C29       1.0  0.07408  0.93943  0.94392  1.0000
  C   C30       1.0  0.07770  0.99003  0.93118  1.0000
  C   C31       1.0  0.10523  0.99127  0.88710  1.0000
  C   C32       1.0  0.86626  0.94550  0.00859  1.0000
  C   C33       1.0  0.82284  0.92919  0.00522  1.0000
  F   F2        1.0  0.81045  0.89538  0.03170  1.0000
  H   H1        1.0  0.72320  0.95307  0.95613  1.0000
  H   H2        1.0  0.74590  0.89809  0.95251  1.0000
  H   H3        1.0  0.73269  0.92202  0.00554  1.0000
  H   H4        1.0  0.78383  0.99617  0.92273  1.0000
  H   H5        1.0  0.86034  0.02558  0.92835  1.0000
  H   H6        1.0  0.97357  0.03425  0.02383  1.0000
  H   H7        1.0  0.86088  0.06639  0.03202  1.0000
  H   H8        1.0  0.82242  0.08306  0.10333  1.0000
  H   H9        1.0  0.92460  0.01419  0.17561  1.0000
  H   H10       1.0  0.96372  0.99672  0.10521  1.0000
  H   H11       1.0  0.01812  0.98540  0.89276  1.0000
  H   H12       1.0  0.04552  0.11763  0.90033  1.0000
  H   H13       1.0  0.05877  0.12228  0.97704  1.0000
  H   H14       1.0  0.10864  0.10718  0.95059  1.0000
  H   H15       1.0  0.09619  0.06739  0.02095  1.0000
  H   H16       1.0  0.04487  0.04779  0.00368  1.0000
  H   H17       1.0  0.15421  0.04298  0.93075  1.0000
  H   H18       1.0  0.21836  0.03336  0.96862  1.0000
  H   H19       1.0  0.23032  0.01087  0.04082  1.0000
  H   H20       1.0  0.14851  0.93285  0.14132  1.0000
  H   H21       1.0  0.13634  0.99026  0.15292  1.0000
  H   H22       1.0  0.07255  0.95316  0.10043  1.0000
  H   H23       1.0  0.06079  0.97517  0.02004  1.0000
  H   H24       1.0  0.13904  0.92896  0.97343  1.0000
  H   H25       1.0  0.09503  0.90265  0.00269  1.0000
  H   H26       1.0  0.03992  0.93063  0.95368  1.0000
  H   H27       1.0  0.08337  0.91701  0.91642  1.0000
  H   H28       1.0  0.13765  0.97481  0.89085  1.0000
  H   H29       1.0  0.11066  0.02543  0.87539  1.0000
  H   H30       1.0  0.08796  0.97353  0.86013  1.0000
  H   H31       1.0  0.88881  0.93076  0.03287  1.0000
