data_image0
_chemical_formula_structural       C2N2C3NC3NC10OC7BrH37
_chemical_formula_sum              "C25 N4 O1 Br1 H37"
_cell_length_a       30
_cell_length_b       30
_cell_length_c       30
_cell_angle_alpha    90
_cell_angle_beta     90
_cell_angle_gamma    90

_space_group_name_H-M_alt    "P 1"
_space_group_IT_number       1

loop_
  _space_group_symop_operation_xyz
  'x, y, z'

loop_
  _atom_site_type_symbol
  _atom_site_label
  _atom_site_symmetry_multiplicity
  _atom_site_fract_x
  _atom_site_fract_y
  _atom_site_fract_z
  _atom_site_occupancy
  C   C1        1.0  0.26621  0.98139  0.97608  1.0000
  C   C2        1.0  0.21940  0.99716  0.97467  1.0000
  N   N1        1.0  0.20420  0.02503  0.00605  1.0000
  N   N2        1.0  0.16121  0.03230  0.99475  1.0000
  C   C3        1.0  0.13499  0.06221  0.02239  1.0000
  C   C4        1.0  0.12980  0.04656  0.07065  1.0000
  C   C5        1.0  0.10496  0.00212  0.07546  1.0000
  N   N3        1.0  0.06108  0.00171  0.05366  1.0000
  C   C6        1.0  0.02783  0.02929  0.07606  1.0000
  C   C7        1.0  0.98725  0.03516  0.04554  1.0000
  C   C8        1.0  0.97648  0.99379  0.01616  1.0000
  N   N4        1.0  0.92811  0.99242  0.00452  1.0000
  C   C9        1.0  0.91378  0.03214  0.97887  1.0000
  C   C10       1.0  0.86958  0.05182  0.99379  1.0000
  C   C11       1.0  0.85576  0.05075  0.03843  1.0000
  C   C12       1.0  0.81561  0.07039  0.05141  1.0000
  C   C13       1.0  0.78901  0.09187  0.02003  1.0000
  C   C14       1.0  0.80254  0.09378  0.97565  1.0000
  C   C15       1.0  0.84262  0.07403  0.96264  1.0000
  C   C16       1.0  0.91272  0.94975  0.98448  1.0000
  C   C17       1.0  0.93723  0.93622  0.94122  1.0000
  C   C18       1.0  0.90957  0.90452  0.91260  1.0000
  O   O1        1.0  0.88336  0.87609  0.93987  1.0000
  C   C19       1.0  0.84904  0.89940  0.96327  1.0000
  C   C20       1.0  0.86214  0.94670  0.97706  1.0000
  C   C21       1.0  0.99408  0.95244  0.04109  1.0000
  C   C22       1.0  0.04454  0.95567  0.04949  1.0000
  C   C23       1.0  0.14857  0.01067  0.95636  1.0000
  C   C24       1.0  0.10343  0.01395  0.93647  1.0000
  C   C25       1.0  0.18588  0.98741  0.94330  1.0000
  Br  Br1       1.0  0.19257  0.95010  0.89368  1.0000
  H   H1        1.0  0.26774  0.94509  0.97298  1.0000
  H   H2        1.0  0.28537  0.99619  0.94879  1.0000
  H   H3        1.0  0.28249  0.99052  0.00744  1.0000
  H   H4        1.0  0.15227  0.09440  0.02170  1.0000
  H   H5        1.0  0.10246  0.06737  0.00682  1.0000
  H   H6        1.0  0.11272  0.07267  0.08965  1.0000
  H   H7        1.0  0.16275  0.04297  0.08613  1.0000
  H   H8        1.0  0.10169  0.99391  0.11097  1.0000
  H   H9        1.0  0.12599  0.97603  0.06078  1.0000
  H   H10       1.0  0.01782  0.01446  0.10799  1.0000
  H   H11       1.0  0.04057  0.06264  0.08370  1.0000
  H   H12       1.0  0.99345  0.06392  0.02381  1.0000
  H   H13       1.0  0.95872  0.04381  0.06672  1.0000
  H   H14       1.0  0.99552  0.99674  0.98498  1.0000
  H   H15       1.0  0.91239  0.02460  0.94313  1.0000
  H   H16       1.0  0.93772  0.05958  0.98150  1.0000
  H   H17       1.0  0.87616  0.03416  0.06337  1.0000
  H   H18       1.0  0.80523  0.06898  0.08609  1.0000
  H   H19       1.0  0.75782  0.10724  0.03017  1.0000
  H   H20       1.0  0.78196  0.11080  0.95121  1.0000
  H   H21       1.0  0.85276  0.07613  0.92789  1.0000
  H   H22       1.0  0.91928  0.92374  0.00936  1.0000
  H   H23       1.0  0.94667  0.96491  0.92073  1.0000
  H   H24       1.0  0.96858  0.91967  0.95012  1.0000
  H   H25       1.0  0.88791  0.92293  0.88965  1.0000
  H   H26       1.0  0.93160  0.88377  0.89221  1.0000
  H   H27       1.0  0.81887  0.89998  0.94267  1.0000
  H   H28       1.0  0.84134  0.87959  0.99299  1.0000
  H   H29       1.0  0.84338  0.95597  0.00699  1.0000
  H   H30       1.0  0.85183  0.96952  0.95041  1.0000
  H   H31       1.0  0.98832  0.92151  0.02270  1.0000
  H   H32       1.0  0.97649  0.94917  0.07305  1.0000
  H   H33       1.0  0.05207  0.93605  0.07945  1.0000
  H   H34       1.0  0.06220  0.93977  0.02171  1.0000
  H   H35       1.0  0.10229  0.99898  0.90323  1.0000
  H   H36       1.0  0.09308  0.04877  0.93290  1.0000
  H   H37       1.0  0.07896  0.99661  0.95718  1.0000
