data_image0
_chemical_formula_structural       C4NCONC8OC2BrH21
_chemical_formula_sum              "C15 N2 O2 Br1 H21"
_cell_length_a       30
_cell_length_b       30
_cell_length_c       30
_cell_angle_alpha    90
_cell_angle_beta     90
_cell_angle_gamma    90

_space_group_name_H-M_alt    "P 1"
_space_group_IT_number       1

loop_
  _space_group_symop_operation_xyz
  'x, y, z'

loop_
  _atom_site_type_symbol
  _atom_site_label
  _atom_site_symmetry_multiplicity
  _atom_site_fract_x
  _atom_site_fract_y
  _atom_site_fract_z
  _atom_site_occupancy
  C   C1        1.0  0.17734  0.06420  0.02875  1.0000
  C   C2        1.0  0.15541  0.03263  0.99657  1.0000
  C   C3        1.0  0.10860  0.02896  0.99674  1.0000
  C   C4        1.0  0.08674  0.00005  0.96758  1.0000
  N   N1        1.0  0.04015  0.99464  0.96560  1.0000
  C   C5        1.0  0.00827  0.01220  0.99353  1.0000
  O   O1        1.0  0.01502  0.03468  0.02694  1.0000
  N   N2        1.0  0.96587  0.00074  0.97919  1.0000
  C   C6        1.0  0.92682  0.01617  0.00203  1.0000
  C   C7        1.0  0.90545  0.98950  0.03937  1.0000
  C   C8        1.0  0.92486  0.94470  0.05207  1.0000
  C   C9        1.0  0.88932  0.01512  0.07973  1.0000
  C   C10       1.0  0.88135  0.99513  0.99443  1.0000
  C   C11       1.0  0.87671  0.95541  0.96371  1.0000
  C   C12       1.0  0.84162  0.02609  0.99140  1.0000
  C   C13       1.0  0.11212  0.97468  0.93769  1.0000
  O   O2        1.0  0.09012  0.94652  0.90906  1.0000
  C   C14       1.0  0.15840  0.97769  0.93684  1.0000
  C   C15       1.0  0.17994  0.00664  0.96631  1.0000
  Br  Br1       1.0  0.24317  0.00928  0.96354  1.0000
  H   H1        1.0  0.19969  0.04607  0.05117  1.0000
  H   H2        1.0  0.15274  0.08138  0.04956  1.0000
  H   H3        1.0  0.19605  0.08982  0.01073  1.0000
  H   H4        1.0  0.08966  0.04924  0.02004  1.0000
  H   H5        1.0  0.03010  0.97140  0.94330  1.0000
  H   H6        1.0  0.96274  0.99472  0.94622  1.0000
  H   H7        1.0  0.92757  0.05224  0.00626  1.0000
  H   H8        1.0  0.94126  0.92751  0.02445  1.0000
  H   H9        1.0  0.94991  0.94876  0.07833  1.0000
  H   H10       1.0  0.89850  0.92289  0.06480  1.0000
  H   H11       1.0  0.85912  0.99962  0.09315  1.0000
  H   H12       1.0  0.91478  0.01502  0.10590  1.0000
  H   H13       1.0  0.88192  0.05006  0.07235  1.0000
  H   H14       1.0  0.86888  0.96649  0.92981  1.0000
  H   H15       1.0  0.84952  0.93391  0.97517  1.0000
  H   H16       1.0  0.90687  0.93510  0.96143  1.0000
  H   H17       1.0  0.84746  0.05827  0.00753  1.0000
  H   H18       1.0  0.83357  0.03311  0.95648  1.0000
  H   H19       1.0  0.81244  0.01061  0.00692  1.0000
  H   H20       1.0  0.11216  0.93090  0.89112  1.0000
  H   H21       1.0  0.17780  0.95787  0.91361  1.0000
