data_image0
_chemical_formula_structural       C2NC3N2CNC3NC6H25
_chemical_formula_sum              "C15 N5 H25"
_cell_length_a       30
_cell_length_b       30
_cell_length_c       30
_cell_angle_alpha    90
_cell_angle_beta     90
_cell_angle_gamma    90

_space_group_name_H-M_alt    "P 1"
_space_group_IT_number       1

loop_
  _space_group_symop_operation_xyz
  'x, y, z'

loop_
  _atom_site_type_symbol
  _atom_site_label
  _atom_site_symmetry_multiplicity
  _atom_site_fract_x
  _atom_site_fract_y
  _atom_site_fract_z
  _atom_site_occupancy
  C   C1        1.0  0.88680  0.08151  0.06245  1.0000
  C   C2        1.0  0.89999  0.04293  0.03305  1.0000
  N   N1        1.0  0.87401  0.00821  0.03173  1.0000
  C   C3        1.0  0.88721  0.97372  0.00561  1.0000
  C   C4        1.0  0.86506  0.93706  0.98913  1.0000
  C   C5        1.0  0.89651  0.91434  0.96265  1.0000
  N   N2        1.0  0.93619  0.93458  0.96194  1.0000
  N   N3        1.0  0.93013  0.96926  0.99014  1.0000
  C   C6        1.0  0.96470  0.00262  0.99839  1.0000
  N   N4        1.0  0.99030  0.99075  0.03905  1.0000
  C   C7        1.0  0.01661  0.94938  0.03429  1.0000
  C   C8        1.0  0.05712  0.95367  0.00204  1.0000
  C   C9        1.0  0.08620  0.91172  0.00484  1.0000
  N   N5        1.0  0.08114  0.99656  0.00913  1.0000
  C   C10       1.0  0.10800  0.99747  0.04991  1.0000
  C   C11       1.0  0.10781  0.00991  0.97000  1.0000
  C   C12       1.0  0.11497  0.05878  0.96104  1.0000
  C   C13       1.0  0.08531  0.03205  0.93102  1.0000
  C   C14       1.0  0.94210  0.04821  0.00482  1.0000
  C   C15       1.0  0.92941  0.06957  0.96022  1.0000
  H   H1        1.0  0.87887  0.11040  0.04172  1.0000
  H   H2        1.0  0.85765  0.07294  0.08259  1.0000
  H   H3        1.0  0.91449  0.08985  0.08461  1.0000
  H   H4        1.0  0.83059  0.92857  0.99502  1.0000
  H   H5        1.0  0.89193  0.88411  0.94352  1.0000
  H   H6        1.0  0.98638  0.00363  0.96906  1.0000
  H   H7        1.0  0.01370  0.01528  0.04315  1.0000
  H   H8        1.0  0.99569  0.92098  0.02495  1.0000
  H   H9        1.0  0.02899  0.94126  0.06774  1.0000
  H   H10       1.0  0.04320  0.95442  0.96820  1.0000
  H   H11       1.0  0.09909  0.90620  0.03853  1.0000
  H   H12       1.0  0.06667  0.88224  0.99568  1.0000
  H   H13       1.0  0.11450  0.91354  0.98188  1.0000
  H   H14       1.0  0.13670  0.97496  0.04817  1.0000
  H   H15       1.0  0.08819  0.98892  0.07932  1.0000
  H   H16       1.0  0.12080  0.03119  0.05569  1.0000
  H   H17       1.0  0.13572  0.98808  0.96211  1.0000
  H   H18       1.0  0.14720  0.06900  0.94836  1.0000
  H   H19       1.0  0.09941  0.08281  0.98306  1.0000
  H   H20       1.0  0.09738  0.02401  0.89793  1.0000
  H   H21       1.0  0.04981  0.03828  0.93262  1.0000
  H   H22       1.0  0.96490  0.07118  0.02186  1.0000
  H   H23       1.0  0.91390  0.10220  0.96544  1.0000
  H   H24       1.0  0.95899  0.07448  0.93940  1.0000
  H   H25       1.0  0.90563  0.04915  0.94151  1.0000
