data_image0
_chemical_formula_structural       C2N2C6NCONC4NC4OH23
_chemical_formula_sum              "C17 N5 O2 H23"
_cell_length_a       30
_cell_length_b       30
_cell_length_c       30
_cell_angle_alpha    90
_cell_angle_beta     90
_cell_angle_gamma    90

_space_group_name_H-M_alt    "P 1"
_space_group_IT_number       1

loop_
  _space_group_symop_operation_xyz
  'x, y, z'

loop_
  _atom_site_type_symbol
  _atom_site_label
  _atom_site_symmetry_multiplicity
  _atom_site_fract_x
  _atom_site_fract_y
  _atom_site_fract_z
  _atom_site_occupancy
  C   C1        1.0  0.30948  0.98246  0.95757  1.0000
  C   C2        1.0  0.26059  0.98380  0.95373  1.0000
  N   N1        1.0  0.23494  0.97585  0.91908  1.0000
  N   N2        1.0  0.19167  0.98181  0.93350  1.0000
  C   C3        1.0  0.19396  0.99295  0.97596  1.0000
  C   C4        1.0  0.15843  0.00308  0.00748  1.0000
  C   C5        1.0  0.16726  0.01400  0.05201  1.0000
  C   C6        1.0  0.13237  0.02341  0.08130  1.0000
  C   C7        1.0  0.08826  0.02210  0.06647  1.0000
  C   C8        1.0  0.07861  0.01153  0.02224  1.0000
  N   N3        1.0  0.03506  0.00921  0.00482  1.0000
  C   C9        1.0  0.99589  0.02139  0.02549  1.0000
  O   O1        1.0  0.99190  0.03917  0.06197  1.0000
  N   N4        1.0  0.95974  0.01122  0.99871  1.0000
  C   C10       1.0  0.91478  0.01947  0.01460  1.0000
  C   C11       1.0  0.89917  0.98505  0.04909  1.0000
  C   C12       1.0  0.85568  0.96591  0.03088  1.0000
  C   C13       1.0  0.83761  0.00219  0.99967  1.0000
  N   N5        1.0  0.80323  0.98620  0.96849  1.0000
  C   C14       1.0  0.76412  0.96881  0.99213  1.0000
  C   C15       1.0  0.78897  0.02144  0.93774  1.0000
  C   C16       1.0  0.88066  0.01756  0.97676  1.0000
  C   C17       1.0  0.11385  0.00192  0.99310  1.0000
  O   O2        1.0  0.23705  0.99487  0.99120  1.0000
  H   H1        1.0  0.32248  0.01529  0.96669  1.0000
  H   H2        1.0  0.31966  0.95846  0.98307  1.0000
  H   H3        1.0  0.32464  0.97257  0.92591  1.0000
  H   H4        1.0  0.20130  0.01527  0.06443  1.0000
  H   H5        1.0  0.13941  0.03178  0.11586  1.0000
  H   H6        1.0  0.06208  0.02941  0.09039  1.0000
  H   H7        1.0  0.03226  0.00235  0.97201  1.0000
  H   H8        1.0  0.96380  0.98394  0.97942  1.0000
  H   H9        1.0  0.91412  0.05269  0.02993  1.0000
  H   H10       1.0  0.92350  0.95853  0.05526  1.0000
  H   H11       1.0  0.89295  0.00175  0.08100  1.0000
  H   H12       1.0  0.86274  0.93519  0.01231  1.0000
  H   H13       1.0  0.83261  0.95765  0.05791  1.0000
  H   H14       1.0  0.82440  0.02976  0.01992  1.0000
  H   H15       1.0  0.77267  0.93949  0.01209  1.0000
  H   H16       1.0  0.73867  0.95761  0.96841  1.0000
  H   H17       1.0  0.74907  0.99387  0.01404  1.0000
  H   H18       1.0  0.76307  0.00907  0.91512  1.0000
  H   H19       1.0  0.77577  0.05056  0.95541  1.0000
  H   H20       1.0  0.81647  0.03227  0.91634  1.0000
  H   H21       1.0  0.89091  0.99355  0.95109  1.0000
  H   H22       1.0  0.87725  0.05013  0.96063  1.0000
  H   H23       1.0  0.10687  0.99342  0.95850  1.0000
