data_image0
_chemical_formula_structural       C2NC5ONC10NC2H25
_chemical_formula_sum              "C19 N3 O1 H25"
_cell_length_a       30
_cell_length_b       30
_cell_length_c       30
_cell_angle_alpha    90
_cell_angle_beta     90
_cell_angle_gamma    90

_space_group_name_H-M_alt    "P 1"
_space_group_IT_number       1

loop_
  _space_group_symop_operation_xyz
  'x, y, z'

loop_
  _atom_site_type_symbol
  _atom_site_label
  _atom_site_symmetry_multiplicity
  _atom_site_fract_x
  _atom_site_fract_y
  _atom_site_fract_z
  _atom_site_occupancy
  C   C1        1.0  0.23650  0.02271  0.99325  1.0000
  C   C2        1.0  0.18751  0.01610  0.00034  1.0000
  N   N1        1.0  0.16112  0.05220  0.99353  1.0000
  C   C3        1.0  0.11707  0.04698  0.99991  1.0000
  C   C4        1.0  0.08863  0.08303  0.99368  1.0000
  C   C5        1.0  0.04272  0.07885  0.99977  1.0000
  C   C6        1.0  0.02511  0.03763  0.01186  1.0000
  C   C7        1.0  0.97656  0.03358  0.01924  1.0000
  O   O1        1.0  0.95973  0.05983  0.04581  1.0000
  N   N2        1.0  0.95269  0.00067  0.99643  1.0000
  C   C8        1.0  0.97086  0.97549  0.95888  1.0000
  C   C9        1.0  0.90578  0.99285  0.00944  1.0000
  C   C10       1.0  0.89677  0.94301  0.01788  1.0000
  C   C11       1.0  0.84890  0.93483  0.03296  1.0000
  C   C12       1.0  0.81556  0.95380  0.99966  1.0000
  C   C13       1.0  0.82379  0.00325  0.99107  1.0000
  C   C14       1.0  0.87185  0.01246  0.97567  1.0000
  C   C15       1.0  0.87815  0.06263  0.96869  1.0000
  C   C16       1.0  0.05338  0.00136  0.01916  1.0000
  C   C17       1.0  0.09901  0.00541  0.01302  1.0000
  N   N3        1.0  0.12523  0.96966  0.01959  1.0000
  C   C18       1.0  0.16970  0.97514  0.01329  1.0000
  C   C19       1.0  0.19837  0.93498  0.02099  1.0000
  H   H1        1.0  0.25486  0.01607  0.02406  1.0000
  H   H2        1.0  0.24360  0.05709  0.98321  1.0000
  H   H3        1.0  0.24866  0.00066  0.96686  1.0000
  H   H4        1.0  0.10266  0.11505  0.98408  1.0000
  H   H5        1.0  0.02098  0.10751  0.99529  1.0000
  H   H6        1.0  0.98125  0.94264  0.97077  1.0000
  H   H7        1.0  0.94552  0.97153  0.93302  1.0000
  H   H8        1.0  0.99932  0.99247  0.94381  1.0000
  H   H9        1.0  0.90014  0.00981  0.04140  1.0000
  H   H10       1.0  0.91985  0.93038  0.04326  1.0000
  H   H11       1.0  0.90295  0.92356  0.98754  1.0000
  H   H12       1.0  0.84324  0.89897  0.03694  1.0000
  H   H13       1.0  0.84360  0.95017  0.06572  1.0000
  H   H14       1.0  0.81793  0.93541  0.96815  1.0000
  H   H15       1.0  0.78160  0.94904  0.01224  1.0000
  H   H16       1.0  0.80017  0.01505  0.96578  1.0000
  H   H17       1.0  0.81676  0.02208  0.02164  1.0000
  H   H18       1.0  0.87639  0.99622  0.94321  1.0000
  H   H19       1.0  0.87521  0.08086  0.00018  1.0000
  H   H20       1.0  0.91081  0.07000  0.95422  1.0000
  H   H21       1.0  0.85294  0.07573  0.94575  1.0000
  H   H22       1.0  0.03988  0.96957  0.03009  1.0000
  H   H23       1.0  0.22240  0.94139  0.04767  1.0000
  H   H24       1.0  0.21621  0.92600  0.99047  1.0000
  H   H25       1.0  0.17808  0.90630  0.03090  1.0000
