data_image0
_chemical_formula_structural       C5NC9OC3FH24
_chemical_formula_sum              "C17 N1 O1 F1 H24"
_cell_length_a       30
_cell_length_b       30
_cell_length_c       30
_cell_angle_alpha    90
_cell_angle_beta     90
_cell_angle_gamma    90

_space_group_name_H-M_alt    "P 1"
_space_group_IT_number       1

loop_
  _space_group_symop_operation_xyz
  'x, y, z'

loop_
  _atom_site_type_symbol
  _atom_site_label
  _atom_site_symmetry_multiplicity
  _atom_site_fract_x
  _atom_site_fract_y
  _atom_site_fract_z
  _atom_site_occupancy
  C   C1        1.0  0.19165  0.98945  0.02713  1.0000
  C   C2        1.0  0.15076  0.01528  0.01472  1.0000
  C   C3        1.0  0.10838  0.99571  0.01678  1.0000
  C   C4        1.0  0.07026  0.01976  0.00406  1.0000
  C   C5        1.0  0.02431  0.99878  0.00702  1.0000
  N   N1        1.0  0.00013  0.99932  0.96438  1.0000
  C   C6        1.0  0.02057  0.97026  0.93061  1.0000
  C   C7        1.0  0.00110  0.92414  0.93838  1.0000
  C   C8        1.0  0.95763  0.93210  0.96334  1.0000
  C   C9        1.0  0.95343  0.98284  0.96748  1.0000
  C   C10       1.0  0.92439  0.99779  0.00769  1.0000
  C   C11       1.0  0.87667  0.97944  0.00443  1.0000
  C   C12       1.0  0.84780  0.99705  0.04245  1.0000
  C   C13       1.0  0.85091  0.04765  0.04547  1.0000
  C   C14       1.0  0.89939  0.06253  0.04633  1.0000
  O   O1        1.0  0.92268  0.04565  0.00852  1.0000
  C   C15       1.0  0.07505  0.06387  0.98917  1.0000
  C   C16       1.0  0.11713  0.08340  0.98661  1.0000
  C   C17       1.0  0.15448  0.05901  0.99919  1.0000
  F   F1        1.0  0.19475  0.07819  0.99622  1.0000
  H   H1        1.0  0.21521  0.01053  0.04538  1.0000
  H   H2        1.0  0.18337  0.96126  0.04879  1.0000
  H   H3        1.0  0.20792  0.97662  0.99710  1.0000
  H   H4        1.0  0.10501  0.96147  0.02826  1.0000
  H   H5        1.0  0.02680  0.96486  0.02048  1.0000
  H   H6        1.0  0.00645  0.01854  0.03203  1.0000
  H   H7        1.0  0.05705  0.97002  0.93066  1.0000
  H   H8        1.0  0.01049  0.98225  0.89755  1.0000
  H   H9        1.0  0.02356  0.90380  0.95879  1.0000
  H   H10       1.0  0.99554  0.90654  0.90690  1.0000
  H   H11       1.0  0.95924  0.91600  0.99611  1.0000
  H   H12       1.0  0.92935  0.91781  0.94520  1.0000
  H   H13       1.0  0.93685  0.99548  0.93730  1.0000
  H   H14       1.0  0.93950  0.98597  0.03884  1.0000
  H   H15       1.0  0.87655  0.94294  0.00511  1.0000
  H   H16       1.0  0.86168  0.98993  0.97275  1.0000
  H   H17       1.0  0.85897  0.98229  0.07398  1.0000
  H   H18       1.0  0.81307  0.98689  0.03756  1.0000
  H   H19       1.0  0.83334  0.05974  0.07509  1.0000
  H   H20       1.0  0.83447  0.06211  0.01618  1.0000
  H   H21       1.0  0.91617  0.05160  0.07690  1.0000
  H   H22       1.0  0.90121  0.09895  0.04519  1.0000
  H   H23       1.0  0.04573  0.08278  0.97914  1.0000
  H   H24       1.0  0.12100  0.11734  0.97475  1.0000
