data_image0
_chemical_formula_structural       C6NC3NC3N2CNCN2C5H19
_chemical_formula_sum              "C19 N7 H19"
_cell_length_a       30
_cell_length_b       30
_cell_length_c       30
_cell_angle_alpha    90
_cell_angle_beta     90
_cell_angle_gamma    90

_space_group_name_H-M_alt    "P 1"
_space_group_IT_number       1

loop_
  _space_group_symop_operation_xyz
  'x, y, z'

loop_
  _atom_site_type_symbol
  _atom_site_label
  _atom_site_symmetry_multiplicity
  _atom_site_fract_x
  _atom_site_fract_y
  _atom_site_fract_z
  _atom_site_occupancy
  C   C1        1.0  0.90402  0.11568  0.00475  1.0000
  C   C2        1.0  0.90265  0.06572  0.00234  1.0000
  C   C3        1.0  0.87035  0.04421  0.97521  1.0000
  C   C4        1.0  0.86770  0.99763  0.97290  1.0000
  C   C5        1.0  0.89738  0.97417  0.99845  1.0000
  C   C6        1.0  0.91635  0.93040  0.01212  1.0000
  N   N1        1.0  0.94523  0.95680  0.04073  1.0000
  C   C7        1.0  0.99335  0.95156  0.04439  1.0000
  C   C8        1.0  0.01794  0.95876  0.00160  1.0000
  C   C9        1.0  0.04530  0.99326  0.99099  1.0000
  N   N2        1.0  0.05450  0.02839  0.01926  1.0000
  C   C10       1.0  0.09334  0.05311  0.01578  1.0000
  C   C11       1.0  0.10954  0.08773  0.03929  1.0000
  C   C12       1.0  0.15747  0.09696  0.04766  1.0000
  N   N3        1.0  0.07800  0.11882  0.05161  1.0000
  N   N4        1.0  0.04179  0.11050  0.03176  1.0000
  C   C13       1.0  0.04872  0.07165  0.00188  1.0000
  N   N5        1.0  0.06380  0.98726  0.94791  1.0000
  C   C14       1.0  0.04122  0.95016  0.92603  1.0000
  N   N6        1.0  0.06430  0.91282  0.90393  1.0000
  N   N7        1.0  0.05063  0.87621  0.92054  1.0000
  C   C15       1.0  0.02660  0.88396  0.95915  1.0000
  C   C16       1.0  0.01805  0.84601  0.98979  1.0000
  C   C17       1.0  0.02218  0.92762  0.96554  1.0000
  C   C18       1.0  0.92778  0.99526  0.02524  1.0000
  C   C19       1.0  0.93203  0.04028  0.02838  1.0000
  H   H1        1.0  0.93779  0.12746  0.01204  1.0000
  H   H2        1.0  0.89404  0.13049  0.97292  1.0000
  H   H3        1.0  0.88150  0.12751  0.03089  1.0000
  H   H4        1.0  0.84725  0.06414  0.95557  1.0000
  H   H5        1.0  0.84368  0.98112  0.95162  1.0000
  H   H6        1.0  0.93373  0.91101  0.98669  1.0000
  H   H7        1.0  0.89507  0.90813  0.03170  1.0000
  H   H8        1.0  0.00546  0.97462  0.07008  1.0000
  H   H9        1.0  0.00066  0.91837  0.05765  1.0000
  H   H10       1.0  0.16413  0.09773  0.08353  1.0000
  H   H11       1.0  0.16700  0.12920  0.03347  1.0000
  H   H12       1.0  0.17886  0.07138  0.03281  1.0000
  H   H13       1.0  0.04487  0.07648  0.96630  1.0000
  H   H14       1.0  0.09710  0.98156  0.95050  1.0000
  H   H15       1.0  0.01496  0.96310  0.90409  1.0000
  H   H16       1.0  0.00018  0.85610  0.01984  1.0000
  H   H17       1.0  0.99761  0.82084  0.97302  1.0000
  H   H18       1.0  0.04942  0.83036  0.99990  1.0000
  H   H19       1.0  0.95647  0.05547  0.05017  1.0000
