data_image0
_chemical_formula_structural       C7NCOC3NCNSO2C8NC2OC2SH30
_chemical_formula_sum              "C24 N4 O4 S2 H30"
_cell_length_a       30
_cell_length_b       30
_cell_length_c       30
_cell_angle_alpha    90
_cell_angle_beta     90
_cell_angle_gamma    90

_space_group_name_H-M_alt    "P 1"
_space_group_IT_number       1

loop_
  _space_group_symop_operation_xyz
  'x, y, z'

loop_
  _atom_site_type_symbol
  _atom_site_label
  _atom_site_symmetry_multiplicity
  _atom_site_fract_x
  _atom_site_fract_y
  _atom_site_fract_z
  _atom_site_occupancy
  C   C1        1.0  0.26781  0.89649  0.02977  1.0000
  C   C2        1.0  0.22602  0.91483  0.01018  1.0000
  C   C3        1.0  0.20658  0.90476  0.96978  1.0000
  C   C4        1.0  0.16655  0.92920  0.96253  1.0000
  C   C5        1.0  0.15653  0.95747  0.99753  1.0000
  C   C6        1.0  0.11620  0.98829  0.00169  1.0000
  C   C7        1.0  0.08432  0.96780  0.03770  1.0000
  N   N1        1.0  0.03780  0.98164  0.03453  1.0000
  C   C8        1.0  0.01103  0.96836  0.99965  1.0000
  O   O1        1.0  0.02477  0.94590  0.96839  1.0000
  C   C9        1.0  0.96324  0.98508  0.00318  1.0000
  C   C10       1.0  0.93981  0.96525  0.04421  1.0000
  C   C11       1.0  0.89262  0.94890  0.03420  1.0000
  N   N2        1.0  0.86889  0.98263  0.00768  1.0000
  C   C12       1.0  0.82299  0.98090  0.00858  1.0000
  N   N3        1.0  0.79986  0.94411  0.01958  1.0000
  S   S1        1.0  0.75065  0.95933  0.01357  1.0000
  O   O2        1.0  0.72037  0.94632  0.05588  1.0000
  O   O3        1.0  0.72818  0.92957  0.97475  1.0000
  C   C13       1.0  0.74887  0.01135  0.00050  1.0000
  C   C14       1.0  0.71530  0.04284  0.99268  1.0000
  C   C15       1.0  0.72814  0.08643  0.98260  1.0000
  C   C16       1.0  0.77295  0.09817  0.98072  1.0000
  C   C17       1.0  0.80632  0.06647  0.98861  1.0000
  C   C18       1.0  0.79489  0.02164  0.99836  1.0000
  C   C19       1.0  0.88937  0.99250  0.96396  1.0000
  C   C20       1.0  0.93715  0.97527  0.96048  1.0000
  N   N4        1.0  0.13048  0.03540  0.00971  1.0000
  C   C21       1.0  0.09287  0.06564  0.01937  1.0000
  C   C22       1.0  0.10796  0.11445  0.02405  1.0000
  O   O4        1.0  0.13031  0.12958  0.98476  1.0000
  C   C23       1.0  0.16846  0.10205  0.97652  1.0000
  C   C24       1.0  0.15475  0.05311  0.97028  1.0000
  S   S2        1.0  0.19576  0.95355  0.03906  1.0000
  H   H1        1.0  0.28240  0.87112  0.00794  1.0000
  H   H2        1.0  0.26126  0.88091  0.06212  1.0000
  H   H3        1.0  0.29261  0.92289  0.03432  1.0000
  H   H4        1.0  0.22031  0.88086  0.94644  1.0000
  H   H5        1.0  0.14586  0.92613  0.93305  1.0000
  H   H6        1.0  0.09858  0.98741  0.96960  1.0000
  H   H7        1.0  0.09582  0.97625  0.07134  1.0000
  H   H8        1.0  0.08430  0.93129  0.03521  1.0000
  H   H9        1.0  0.02414  0.99736  0.06102  1.0000
  H   H10       1.0  0.96513  0.02147  0.00710  1.0000
  H   H11       1.0  0.95887  0.93759  0.05867  1.0000
  H   H12       1.0  0.93822  0.99109  0.07010  1.0000
  H   H13       1.0  0.87581  0.94314  0.06619  1.0000
  H   H14       1.0  0.89345  0.91690  0.01647  1.0000
  H   H15       1.0  0.68031  0.03362  0.99459  1.0000
  H   H16       1.0  0.70270  0.11160  0.97650  1.0000
  H   H17       1.0  0.78225  0.13245  0.97331  1.0000
  H   H18       1.0  0.84103  0.07677  0.98793  1.0000
  H   H19       1.0  0.88995  0.02865  0.95900  1.0000
  H   H20       1.0  0.86970  0.97800  0.93673  1.0000
  H   H21       1.0  0.93680  0.93925  0.95395  1.0000
  H   H22       1.0  0.95352  0.99056  0.93158  1.0000
  H   H23       1.0  0.06799  0.06354  0.99263  1.0000
  H   H24       1.0  0.07704  0.05650  0.05091  1.0000
  H   H25       1.0  0.12993  0.11880  0.05296  1.0000
  H   H26       1.0  0.07883  0.13586  0.02907  1.0000
  H   H27       1.0  0.18452  0.11434  0.94614  1.0000
  H   H28       1.0  0.19232  0.10580  0.00398  1.0000
  H   H29       1.0  0.13342  0.05069  0.94062  1.0000
  H   H30       1.0  0.18512  0.03390  0.96391  1.0000
