data_image0
_chemical_formula_structural       C10NC4NC6OH30
_chemical_formula_sum              "C20 N2 O1 H30"
_cell_length_a       30
_cell_length_b       30
_cell_length_c       30
_cell_angle_alpha    90
_cell_angle_beta     90
_cell_angle_gamma    90

_space_group_name_H-M_alt    "P 1"
_space_group_IT_number       1

loop_
  _space_group_symop_operation_xyz
  'x, y, z'

loop_
  _atom_site_type_symbol
  _atom_site_label
  _atom_site_symmetry_multiplicity
  _atom_site_fract_x
  _atom_site_fract_y
  _atom_site_fract_z
  _atom_site_occupancy
  C   C1        1.0  0.85923  0.92401  0.04917  1.0000
  C   C2        1.0  0.85976  0.96718  0.02406  1.0000
  C   C3        1.0  0.82216  0.99070  0.01643  1.0000
  C   C4        1.0  0.82679  0.02650  0.98443  1.0000
  C   C5        1.0  0.81940  0.01491  0.94169  1.0000
  C   C6        1.0  0.85480  0.02174  0.90960  1.0000
  C   C7        1.0  0.89512  0.00282  0.91572  1.0000
  C   C8        1.0  0.90919  0.97213  0.95397  1.0000
  C   C9        1.0  0.90417  0.98663  0.00453  1.0000
  C   C10       1.0  0.94527  0.97033  0.03272  1.0000
  N   N1        1.0  0.98664  0.99669  0.03086  1.0000
  C   C11       1.0  0.01826  0.98290  0.06557  1.0000
  C   C12       1.0  0.06353  0.00004  0.04998  1.0000
  C   C13       1.0  0.05623  0.01599  0.00213  1.0000
  C   C14       1.0  0.09314  0.00427  0.96866  1.0000
  N   N2        1.0  0.13384  0.03105  0.97291  1.0000
  C   C15       1.0  0.16394  0.02383  0.93505  1.0000
  C   C16       1.0  0.20741  0.04468  0.95053  1.0000
  C   C17       1.0  0.20611  0.04154  0.00118  1.0000
  C   C18       1.0  0.16093  0.02116  0.01222  1.0000
  C   C19       1.0  0.01190  0.99430  0.98931  1.0000
  C   C20       1.0  0.90021  0.03814  0.01065  1.0000
  O   O1        1.0  0.85953  0.05764  0.99421  1.0000
  H   H1        1.0  0.87580  0.89789  0.02982  1.0000
  H   H2        1.0  0.87594  0.92728  0.08140  1.0000
  H   H3        1.0  0.82513  0.91269  0.05572  1.0000
  H   H4        1.0  0.78936  0.98107  0.02802  1.0000
  H   H5        1.0  0.79680  0.98783  0.93324  1.0000
  H   H6        1.0  0.84764  0.04222  0.88063  1.0000
  H   H7        1.0  0.92049  0.00891  0.89048  1.0000
  H   H8        1.0  0.94403  0.96376  0.94726  1.0000
  H   H9        1.0  0.89210  0.94008  0.94894  1.0000
  H   H10       1.0  0.95232  0.93524  0.02485  1.0000
  H   H11       1.0  0.93494  0.97098  0.06786  1.0000
  H   H12       1.0  0.01969  0.94648  0.06877  1.0000
  H   H13       1.0  0.00924  0.99684  0.09808  1.0000
  H   H14       1.0  0.07487  0.02765  0.07101  1.0000
  H   H15       1.0  0.08823  0.97322  0.05202  1.0000
  H   H16       1.0  0.05159  0.05235  0.00253  1.0000
  H   H17       1.0  0.07942  0.01025  0.93525  1.0000
  H   H18       1.0  0.10083  0.96852  0.97033  1.0000
  H   H19       1.0  0.16895  0.98819  0.92847  1.0000
  H   H20       1.0  0.15168  0.03967  0.90455  1.0000
  H   H21       1.0  0.23638  0.02741  0.93659  1.0000
  H   H22       1.0  0.20927  0.07976  0.94034  1.0000
  H   H23       1.0  0.20931  0.07494  0.01573  1.0000
  H   H24       1.0  0.23339  0.02102  0.01415  1.0000
  H   H25       1.0  0.14746  0.03606  0.04262  1.0000
  H   H26       1.0  0.16467  0.98514  0.01732  1.0000
  H   H27       1.0  0.01685  0.95970  0.97849  1.0000
  H   H28       1.0  0.99609  0.01325  0.96246  1.0000
  H   H29       1.0  0.92762  0.05538  0.99374  1.0000
  H   H30       1.0  0.90235  0.04705  0.04609  1.0000
