data_image0
_chemical_formula_structural       C5SC2ONC2OC2NC5H22
_chemical_formula_sum              "C16 S1 O2 N2 H22"
_cell_length_a       30
_cell_length_b       30
_cell_length_c       30
_cell_angle_alpha    90
_cell_angle_beta     90
_cell_angle_gamma    90

_space_group_name_H-M_alt    "P 1"
_space_group_IT_number       1

loop_
  _space_group_symop_operation_xyz
  'x, y, z'

loop_
  _atom_site_type_symbol
  _atom_site_label
  _atom_site_symmetry_multiplicity
  _atom_site_fract_x
  _atom_site_fract_y
  _atom_site_fract_z
  _atom_site_occupancy
  C   C1        1.0  0.24837  0.00644  0.00532  1.0000
  C   C2        1.0  0.19914  0.00891  0.99700  1.0000
  C   C3        1.0  0.18031  0.04635  0.97654  1.0000
  C   C4        1.0  0.13453  0.04808  0.96805  1.0000
  C   C5        1.0  0.10699  0.01244  0.97986  1.0000
  S   S1        1.0  0.04883  0.01560  0.96822  1.0000
  C   C6        1.0  0.02700  0.01076  0.02478  1.0000
  C   C7        1.0  0.97666  0.01727  0.02543  1.0000
  O   O1        1.0  0.96074  0.04946  0.04548  1.0000
  N   N1        1.0  0.95044  0.98589  0.00385  1.0000
  C   C8        1.0  0.96423  0.94026  0.99391  1.0000
  C   C9        1.0  0.92199  0.91234  0.99999  1.0000
  O   O2        1.0  0.91703  0.89964  0.04551  1.0000
  C   C10       1.0  0.88537  0.94454  0.98641  1.0000
  C   C11       1.0  0.90227  0.98965  0.00387  1.0000
  N   N2        1.0  0.89004  0.02596  0.97425  1.0000
  C   C12       1.0  0.84261  0.03676  0.97415  1.0000
  C   C13       1.0  0.82418  0.06628  0.01016  1.0000
  C   C14       1.0  0.82900  0.08380  0.96355  1.0000
  C   C15       1.0  0.12583  0.97465  0.99949  1.0000
  C   C16       1.0  0.17161  0.97288  0.00800  1.0000
  H   H1        1.0  0.26457  0.98723  0.97887  1.0000
  H   H2        1.0  0.25517  0.99054  0.03747  1.0000
  H   H3        1.0  0.26327  0.03975  0.00634  1.0000
  H   H4        1.0  0.20109  0.07450  0.96704  1.0000
  H   H5        1.0  0.12061  0.07758  0.95221  1.0000
  H   H6        1.0  0.03573  0.97886  0.04003  1.0000
  H   H7        1.0  0.04197  0.03705  0.04527  1.0000
  H   H8        1.0  0.97516  0.93966  0.95910  1.0000
  H   H9        1.0  0.99112  0.92917  0.01578  1.0000
  H   H10       1.0  0.92265  0.88198  0.97980  1.0000
  H   H11       1.0  0.88911  0.88335  0.04829  1.0000
  H   H12       1.0  0.85269  0.93627  0.00037  1.0000
  H   H13       1.0  0.88264  0.94467  0.94992  1.0000
  H   H14       1.0  0.89118  0.99567  0.03819  1.0000
  H   H15       1.0  0.90242  0.02040  0.94325  1.0000
  H   H16       1.0  0.82069  0.01082  0.96141  1.0000
  H   H17       1.0  0.84695  0.07888  0.03528  1.0000
  H   H18       1.0  0.79091  0.05943  0.02238  1.0000
  H   H19       1.0  0.79898  0.08881  0.94413  1.0000
  H   H20       1.0  0.85490  0.10826  0.95747  1.0000
  H   H21       1.0  0.10532  0.94604  0.00800  1.0000
  H   H22       1.0  0.18569  0.94311  0.02317  1.0000
