data_image0
_chemical_formula_structural       C5NCOCSO2C5IC4F3H13
_chemical_formula_sum              "C16 N1 O3 S1 I1 F3 H13"
_cell_length_a       30
_cell_length_b       30
_cell_length_c       30
_cell_angle_alpha    90
_cell_angle_beta     90
_cell_angle_gamma    90

_space_group_name_H-M_alt    "P 1"
_space_group_IT_number       1

loop_
  _space_group_symop_operation_xyz
  'x, y, z'

loop_
  _atom_site_type_symbol
  _atom_site_label
  _atom_site_symmetry_multiplicity
  _atom_site_fract_x
  _atom_site_fract_y
  _atom_site_fract_z
  _atom_site_occupancy
  C   C1        1.0  0.79977  0.02957  0.94536  1.0000
  C   C2        1.0  0.84782  0.01948  0.95567  1.0000
  C   C3        1.0  0.87039  0.98812  0.92932  1.0000
  C   C4        1.0  0.91479  0.97686  0.93798  1.0000
  C   C5        1.0  0.93762  0.99658  0.97321  1.0000
  N   N1        1.0  0.98234  0.98723  0.98440  1.0000
  C   C6        1.0  0.01161  0.95919  0.96235  1.0000
  O   O1        1.0  0.00280  0.93666  0.92927  1.0000
  C   C7        1.0  0.05628  0.95369  0.98441  1.0000
  S   S1        1.0  0.08262  0.00567  0.99167  1.0000
  O   O2        1.0  0.05518  0.03105  0.02254  1.0000
  O   O3        1.0  0.09517  0.02365  0.94868  1.0000
  C   C8        1.0  0.13299  0.99226  0.01983  1.0000
  C   C9        1.0  0.14062  0.00855  0.06282  1.0000
  C   C10       1.0  0.18008  0.99748  0.08476  1.0000
  C   C11       1.0  0.21160  0.97032  0.06383  1.0000
  C   C12       1.0  0.20382  0.95464  0.02069  1.0000
  I   I1        1.0  0.25098  0.91445  0.98973  1.0000
  C   C13       1.0  0.16464  0.96566  0.99826  1.0000
  C   C14       1.0  0.91513  0.02760  0.99993  1.0000
  C   C15       1.0  0.87024  0.03912  0.99197  1.0000
  C   C16       1.0  0.84757  0.07254  0.02221  1.0000
  F   F1        1.0  0.80802  0.05745  0.03876  1.0000
  F   F2        1.0  0.87241  0.08380  0.05852  1.0000
  F   F3        1.0  0.83828  0.11166  0.00117  1.0000
  H   H1        1.0  0.77797  0.00942  0.96660  1.0000
  H   H2        1.0  0.79204  0.02205  0.91044  1.0000
  H   H3        1.0  0.79221  0.06492  0.95034  1.0000
  H   H4        1.0  0.85355  0.97200  0.90148  1.0000
  H   H5        1.0  0.93041  0.95249  0.91630  1.0000
  H   H6        1.0  0.99484  0.00554  0.01020  1.0000
  H   H7        1.0  0.07764  0.93322  0.96310  1.0000
  H   H8        1.0  0.05200  0.93753  0.01674  1.0000
  H   H9        1.0  0.11649  0.03001  0.07933  1.0000
  H   H10       1.0  0.18640  0.01013  0.11822  1.0000
  H   H11       1.0  0.24217  0.96198  0.08145  1.0000
  H   H12       1.0  0.15897  0.95411  0.96437  1.0000
  H   H13       1.0  0.93254  0.04331  0.02766  1.0000
