data_image0
_chemical_formula_structural       C2NOC10N2CNC6NCH17
_chemical_formula_sum              "C20 N5 O1 H17"
_cell_length_a       30
_cell_length_b       30
_cell_length_c       30
_cell_angle_alpha    90
_cell_angle_beta     90
_cell_angle_gamma    90

_space_group_name_H-M_alt    "P 1"
_space_group_IT_number       1

loop_
  _space_group_symop_operation_xyz
  'x, y, z'

loop_
  _atom_site_type_symbol
  _atom_site_label
  _atom_site_symmetry_multiplicity
  _atom_site_fract_x
  _atom_site_fract_y
  _atom_site_fract_z
  _atom_site_occupancy
  C   C1        1.0  0.94294  0.15410  0.09791  1.0000
  C   C2        1.0  0.95087  0.11445  0.06906  1.0000
  N   N1        1.0  0.92032  0.09656  0.04437  1.0000
  O   O1        1.0  0.94133  0.06118  0.02138  1.0000
  C   C3        1.0  0.98040  0.04945  0.04647  1.0000
  C   C4        1.0  0.01185  0.02623  0.01620  1.0000
  C   C5        1.0  0.05479  0.03713  0.00340  1.0000
  C   C6        1.0  0.07101  0.00058  0.97836  1.0000
  C   C7        1.0  0.11502  0.99482  0.95770  1.0000
  C   C8        1.0  0.14609  0.02976  0.95631  1.0000
  C   C9        1.0  0.18791  0.02372  0.93657  1.0000
  C   C10       1.0  0.19920  0.98272  0.91792  1.0000
  C   C11       1.0  0.16874  0.94773  0.91892  1.0000
  C   C12       1.0  0.12697  0.95377  0.93863  1.0000
  N   N2        1.0  0.03990  0.96877  0.97614  1.0000
  N   N3        1.0  0.00322  0.98518  0.99656  1.0000
  C   C13       1.0  0.96466  0.95872  0.99483  1.0000
  N   N4        1.0  0.96343  0.91699  0.98073  1.0000
  C   C14       1.0  0.91979  0.90387  0.98450  1.0000
  C   C15       1.0  0.89988  0.86281  0.97447  1.0000
  C   C16       1.0  0.85391  0.85801  0.98114  1.0000
  C   C17       1.0  0.82834  0.89339  0.99738  1.0000
  C   C18       1.0  0.84765  0.93464  0.00754  1.0000
  C   C19       1.0  0.89354  0.93838  0.00075  1.0000
  N   N5        1.0  0.92284  0.97297  0.00669  1.0000
  C   C20       1.0  0.99566  0.09363  0.06527  1.0000
  H   H1        1.0  0.95277  0.14634  0.13213  1.0000
  H   H2        1.0  0.90772  0.16343  0.09737  1.0000
  H   H3        1.0  0.96295  0.18202  0.08576  1.0000
  H   H4        1.0  0.97021  0.02703  0.07357  1.0000
  H   H5        1.0  0.07283  0.06704  0.01219  1.0000
  H   H6        1.0  0.13836  0.06225  0.97025  1.0000
  H   H7        1.0  0.21162  0.05110  0.93567  1.0000
  H   H8        1.0  0.23167  0.97805  0.90254  1.0000
  H   H9        1.0  0.17727  0.91568  0.90434  1.0000
  H   H10       1.0  0.10356  0.92601  0.93902  1.0000
  H   H11       1.0  0.91996  0.83560  0.96172  1.0000
  H   H12       1.0  0.83803  0.82635  0.97344  1.0000
  H   H13       1.0  0.79266  0.88883  0.00212  1.0000
  H   H14       1.0  0.82778  0.96216  0.01999  1.0000
  H   H15       1.0  0.91420  0.00426  0.01585  1.0000
  H   H16       1.0  0.01557  0.11383  0.04234  1.0000
  H   H17       1.0  0.01256  0.09048  0.09735  1.0000
