data_image0
_chemical_formula_structural       C4NCONC17O2C7H24
_chemical_formula_sum              "C29 N2 O3 H24"
_cell_length_a       30
_cell_length_b       30
_cell_length_c       30
_cell_angle_alpha    90
_cell_angle_beta     90
_cell_angle_gamma    90

_space_group_name_H-M_alt    "P 1"
_space_group_IT_number       1

loop_
  _space_group_symop_operation_xyz
  'x, y, z'

loop_
  _atom_site_type_symbol
  _atom_site_label
  _atom_site_symmetry_multiplicity
  _atom_site_fract_x
  _atom_site_fract_y
  _atom_site_fract_z
  _atom_site_occupancy
  C   C1        1.0  0.91883  0.95198  0.08040  1.0000
  C   C2        1.0  0.95353  0.95925  0.04471  1.0000
  C   C3        1.0  0.97901  0.92634  0.02720  1.0000
  C   C4        1.0  0.97481  0.88076  0.03995  1.0000
  N   N1        1.0  0.97041  0.84424  0.05196  1.0000
  C   C5        1.0  0.01426  0.93701  0.99385  1.0000
  O   O1        1.0  0.03332  0.90820  0.97208  1.0000
  N   N2        1.0  0.02480  0.98104  0.98818  1.0000
  C   C6        1.0  0.01074  0.01739  0.01802  1.0000
  C   C7        1.0  0.03759  0.01465  0.06293  1.0000
  C   C8        1.0  0.08678  0.02963  0.06213  1.0000
  C   C9        1.0  0.11626  0.00483  0.02998  1.0000
  C   C10       1.0  0.12570  0.95954  0.03631  1.0000
  C   C11       1.0  0.15192  0.93645  0.00562  1.0000
  C   C12       1.0  0.16933  0.95848  0.96861  1.0000
  C   C13       1.0  0.16067  0.00366  0.96231  1.0000
  C   C14       1.0  0.13432  0.02677  0.99287  1.0000
  C   C15       1.0  0.01633  0.06308  0.99505  1.0000
  C   C16       1.0  0.02369  0.06675  0.94877  1.0000
  C   C17       1.0  0.02822  0.10825  0.92809  1.0000
  C   C18       1.0  0.02533  0.14715  0.95308  1.0000
  C   C19       1.0  0.01785  0.14457  0.99872  1.0000
  C   C20       1.0  0.01334  0.10309  0.01944  1.0000
  C   C21       1.0  0.96040  0.00667  0.02626  1.0000
  C   C22       1.0  0.93431  0.04231  0.05361  1.0000
  O   O2        1.0  0.93714  0.05966  0.08994  1.0000
  O   O3        1.0  0.90213  0.04814  0.02254  1.0000
  C   C23       1.0  0.92526  0.02063  0.98959  1.0000
  C   C24       1.0  0.89528  0.98385  0.96578  1.0000
  C   C25       1.0  0.85040  0.97617  0.97739  1.0000
  C   C26       1.0  0.82473  0.94335  0.95655  1.0000
  C   C27       1.0  0.84325  0.91722  0.92306  1.0000
  C   C28       1.0  0.88726  0.92412  0.91029  1.0000
  C   C29       1.0  0.91266  0.95706  0.93124  1.0000
  H   H1        1.0  0.88644  0.96514  0.07009  1.0000
  H   H2        1.0  0.92891  0.96870  0.11123  1.0000
  H   H3        1.0  0.91368  0.91682  0.08850  1.0000
  H   H4        1.0  0.05376  0.98476  0.97097  1.0000
  H   H5        1.0  0.02094  0.03491  0.08841  1.0000
  H   H6        1.0  0.03661  0.98056  0.07616  1.0000
  H   H7        1.0  0.10068  0.02512  0.09572  1.0000
  H   H8        1.0  0.08903  0.06556  0.05595  1.0000
  H   H9        1.0  0.11245  0.94173  0.06497  1.0000
  H   H10       1.0  0.15864  0.90117  0.01048  1.0000
  H   H11       1.0  0.18971  0.94037  0.94475  1.0000
  H   H12       1.0  0.17448  0.02091  0.93359  1.0000
  H   H13       1.0  0.12780  0.06204  0.98737  1.0000
  H   H14       1.0  0.02569  0.03739  0.92755  1.0000
  H   H15       1.0  0.03389  0.11013  0.89233  1.0000
  H   H16       1.0  0.02877  0.17943  0.93699  1.0000
  H   H17       1.0  0.01539  0.17494  0.01838  1.0000
  H   H18       1.0  0.00751  0.10302  0.05528  1.0000
  H   H19       1.0  0.93828  0.04294  0.96374  1.0000
  H   H20       1.0  0.83495  0.99629  0.00339  1.0000
  H   H21       1.0  0.79025  0.93831  0.96651  1.0000
  H   H22       1.0  0.82340  0.89164  0.90683  1.0000
  H   H23       1.0  0.90189  0.90392  0.88399  1.0000
  H   H24       1.0  0.94696  0.96188  0.92032  1.0000
