data_image0
_chemical_formula_structural       C4NC6NC2ONC6OH25
_chemical_formula_sum              "C18 N3 O2 H25"
_cell_length_a       30
_cell_length_b       30
_cell_length_c       30
_cell_angle_alpha    90
_cell_angle_beta     90
_cell_angle_gamma    90

_space_group_name_H-M_alt    "P 1"
_space_group_IT_number       1

loop_
  _space_group_symop_operation_xyz
  'x, y, z'

loop_
  _atom_site_type_symbol
  _atom_site_label
  _atom_site_symmetry_multiplicity
  _atom_site_fract_x
  _atom_site_fract_y
  _atom_site_fract_z
  _atom_site_occupancy
  C   C1        1.0  0.00463  0.93637  0.93778  1.0000
  C   C2        1.0  0.03405  0.96520  0.96534  1.0000
  C   C3        1.0  0.07471  0.95666  0.98214  1.0000
  C   C4        1.0  0.09862  0.91304  0.97961  1.0000
  N   N1        1.0  0.09058  0.99335  0.00563  1.0000
  C   C5        1.0  0.13368  0.00266  0.02290  1.0000
  C   C6        1.0  0.17260  0.98459  0.00425  1.0000
  C   C7        1.0  0.21484  0.99416  0.02166  1.0000
  C   C8        1.0  0.21914  0.02246  0.05813  1.0000
  C   C9        1.0  0.18127  0.04144  0.07690  1.0000
  C   C10       1.0  0.13917  0.03177  0.05931  1.0000
  N   N2        1.0  0.05633  0.02594  0.01065  1.0000
  C   C11       1.0  0.02090  0.01181  0.97825  1.0000
  C   C12       1.0  0.97540  0.01377  0.00283  1.0000
  O   O1        1.0  0.97333  0.00454  0.04303  1.0000
  N   N3        1.0  0.93751  0.02626  0.97922  1.0000
  C   C13       1.0  0.93570  0.03502  0.93149  1.0000
  C   C14       1.0  0.89586  0.02936  0.00418  1.0000
  C   C15       1.0  0.87289  0.98378  0.00760  1.0000
  C   C16       1.0  0.82812  0.98800  0.03132  1.0000
  C   C17       1.0  0.80017  0.02491  0.01038  1.0000
  C   C18       1.0  0.82698  0.06785  0.00670  1.0000
  O   O2        1.0  0.86716  0.06054  0.98233  1.0000
  H   H1        1.0  0.99713  0.95263  0.90600  1.0000
  H   H2        1.0  0.01992  0.90424  0.92992  1.0000
  H   H3        1.0  0.97323  0.92969  0.95510  1.0000
  H   H4        1.0  0.11644  0.90596  0.01066  1.0000
  H   H5        1.0  0.07556  0.88521  0.97470  1.0000
  H   H6        1.0  0.12228  0.91277  0.95188  1.0000
  H   H7        1.0  0.17089  0.96369  0.97482  1.0000
  H   H8        1.0  0.24432  0.97973  0.00634  1.0000
  H   H9        1.0  0.25189  0.02998  0.07162  1.0000
  H   H10       1.0  0.18424  0.06385  0.10520  1.0000
  H   H11       1.0  0.11023  0.04713  0.07478  1.0000
  H   H12       1.0  0.04271  0.02130  0.04175  1.0000
  H   H13       1.0  0.02230  0.03478  0.95005  1.0000
  H   H14       1.0  0.93181  0.07090  0.92633  1.0000
  H   H15       1.0  0.90726  0.01732  0.91704  1.0000
  H   H16       1.0  0.96552  0.02399  0.91400  1.0000
  H   H17       1.0  0.90324  0.04209  0.03768  1.0000
  H   H18       1.0  0.86700  0.97043  0.97405  1.0000
  H   H19       1.0  0.89408  0.95970  0.02507  1.0000
  H   H20       1.0  0.81012  0.95626  0.02993  1.0000
  H   H21       1.0  0.83379  0.99561  0.06663  1.0000
  H   H22       1.0  0.76983  0.03048  0.02988  1.0000
  H   H23       1.0  0.79002  0.01425  0.97690  1.0000
  H   H24       1.0  0.83495  0.08148  0.03966  1.0000
  H   H25       1.0  0.80758  0.09304  0.98880  1.0000
