data_image0
_chemical_formula_structural       C2NC2NC2NCOC6NC3NOH23
_chemical_formula_sum              "C16 N5 O2 H23"
_cell_length_a       30
_cell_length_b       30
_cell_length_c       30
_cell_angle_alpha    90
_cell_angle_beta     90
_cell_angle_gamma    90

_space_group_name_H-M_alt    "P 1"
_space_group_IT_number       1

loop_
  _space_group_symop_operation_xyz
  'x, y, z'

loop_
  _atom_site_type_symbol
  _atom_site_label
  _atom_site_symmetry_multiplicity
  _atom_site_fract_x
  _atom_site_fract_y
  _atom_site_fract_z
  _atom_site_occupancy
  C   C1        1.0  0.20061  0.08045  0.87013  1.0000
  C   C2        1.0  0.18216  0.03912  0.88913  1.0000
  N   N1        1.0  0.15389  0.03364  0.92211  1.0000
  C   C3        1.0  0.14971  0.98793  0.92355  1.0000
  C   C4        1.0  0.12061  0.96471  0.95687  1.0000
  N   N2        1.0  0.07410  0.96011  0.94117  1.0000
  C   C5        1.0  0.04795  0.93033  0.97027  1.0000
  C   C6        1.0  0.01754  0.95379  0.00436  1.0000
  N   N3        1.0  0.98764  0.98631  0.98353  1.0000
  C   C7        1.0  0.94941  0.00348  0.00308  1.0000
  O   O1        1.0  0.92568  0.03097  0.98403  1.0000
  C   C8        1.0  0.93816  0.98637  0.04958  1.0000
  C   C9        1.0  0.89813  0.01000  0.07062  1.0000
  C   C10       1.0  0.85319  0.99658  0.05076  1.0000
  C   C11       1.0  0.81960  0.01295  0.08525  1.0000
  C   C12       1.0  0.84327  0.00931  0.13053  1.0000
  C   C13       1.0  0.83992  0.05116  0.15592  1.0000
  N   N4        1.0  0.83734  0.08395  0.17627  1.0000
  C   C14       1.0  0.89197  0.99765  0.11980  1.0000
  C   C15       1.0  0.00133  0.00281  0.93961  1.0000
  C   C16       1.0  0.05243  0.00411  0.93523  1.0000
  N   N5        1.0  0.17463  0.96591  0.89363  1.0000
  O   O2        1.0  0.19608  0.00007  0.87043  1.0000
  H   H1        1.0  0.23491  0.08543  0.88148  1.0000
  H   H2        1.0  0.18079  0.10931  0.88048  1.0000
  H   H3        1.0  0.20051  0.07913  0.83369  1.0000
  H   H4        1.0  0.13488  0.93150  0.96264  1.0000
  H   H5        1.0  0.12191  0.98248  0.98880  1.0000
  H   H6        1.0  0.02665  0.91029  0.94828  1.0000
  H   H7        1.0  0.06929  0.90621  0.98755  1.0000
  H   H8        1.0  0.99785  0.92876  0.02216  1.0000
  H   H9        1.0  0.03769  0.97175  0.02900  1.0000
  H   H10       1.0  0.96740  0.99168  0.07086  1.0000
  H   H11       1.0  0.93162  0.95049  0.04752  1.0000
  H   H12       1.0  0.90221  0.04628  0.06788  1.0000
  H   H13       1.0  0.84706  0.01150  0.01805  1.0000
  H   H14       1.0  0.85073  0.96027  0.04724  1.0000
  H   H15       1.0  0.81005  0.04743  0.07766  1.0000
  H   H16       1.0  0.78913  0.99285  0.08436  1.0000
  H   H17       1.0  0.82845  0.98236  0.15026  1.0000
  H   H18       1.0  0.91623  0.01467  0.14116  1.0000
  H   H19       1.0  0.89687  0.96165  0.12427  1.0000
  H   H20       1.0  0.98687  0.98041  0.91460  1.0000
  H   H21       1.0  0.98767  0.03613  0.93372  1.0000
  H   H22       1.0  0.06103  0.01727  0.90224  1.0000
  H   H23       1.0  0.06483  0.02785  0.96022  1.0000
