data_image0
_chemical_formula_structural       C9NC2OC5H25
_chemical_formula_sum              "C16 N1 O1 H25"
_cell_length_a       30
_cell_length_b       30
_cell_length_c       30
_cell_angle_alpha    90
_cell_angle_beta     90
_cell_angle_gamma    90

_space_group_name_H-M_alt    "P 1"
_space_group_IT_number       1

loop_
  _space_group_symop_operation_xyz
  'x, y, z'

loop_
  _atom_site_type_symbol
  _atom_site_label
  _atom_site_symmetry_multiplicity
  _atom_site_fract_x
  _atom_site_fract_y
  _atom_site_fract_z
  _atom_site_occupancy
  C   C1        1.0  0.94214  0.87965  0.96522  1.0000
  C   C2        1.0  0.93748  0.92868  0.97396  1.0000
  C   C3        1.0  0.89570  0.94713  0.98298  1.0000
  C   C4        1.0  0.89145  0.99261  0.99187  1.0000
  C   C5        1.0  0.84667  0.01234  0.00214  1.0000
  C   C6        1.0  0.92983  0.01931  0.99300  1.0000
  C   C7        1.0  0.97268  0.00178  0.98499  1.0000
  C   C8        1.0  0.01402  0.03238  0.98557  1.0000
  C   C9        1.0  0.06008  0.00744  0.98692  1.0000
  N   N1        1.0  0.06643  0.97954  0.02648  1.0000
  C   C10       1.0  0.10945  0.95801  0.02857  1.0000
  C   C11       1.0  0.10818  0.92150  0.06382  1.0000
  O   O1        1.0  0.14203  0.98937  0.04148  1.0000
  C   C12       1.0  0.01303  0.06183  0.94268  1.0000
  C   C13       1.0  0.02632  0.10843  0.95775  1.0000
  C   C14       1.0  0.00449  0.11247  0.00315  1.0000
  C   C15       1.0  0.01295  0.06710  0.02454  1.0000
  C   C16       1.0  0.97543  0.95605  0.97520  1.0000
  H   H1        1.0  0.94868  0.86199  0.99646  1.0000
  H   H2        1.0  0.91177  0.86611  0.95017  1.0000
  H   H3        1.0  0.96952  0.87314  0.94198  1.0000
  H   H4        1.0  0.86627  0.92594  0.98296  1.0000
  H   H5        1.0  0.84060  0.01145  0.03810  1.0000
  H   H6        1.0  0.82008  0.99390  0.98525  1.0000
  H   H7        1.0  0.84476  0.04695  0.99067  1.0000
  H   H8        1.0  0.92575  0.05460  0.00019  1.0000
  H   H9        1.0  0.08670  0.03248  0.98526  1.0000
  H   H10       1.0  0.06371  0.98685  0.95690  1.0000
  H   H11       1.0  0.06214  0.99749  0.05495  1.0000
  H   H12       1.0  0.11890  0.94304  0.99660  1.0000
  H   H13       1.0  0.10072  0.93513  0.09689  1.0000
  H   H14       1.0  0.08334  0.89599  0.05579  1.0000
  H   H15       1.0  0.14084  0.90536  0.06644  1.0000
  H   H16       1.0  0.14689  0.00848  0.01591  1.0000
  H   H17       1.0  0.03527  0.04951  0.91646  1.0000
  H   H18       1.0  0.97957  0.06346  0.92798  1.0000
  H   H19       1.0  0.01495  0.13418  0.93458  1.0000
  H   H20       1.0  0.06264  0.11099  0.96075  1.0000
  H   H21       1.0  0.01859  0.13973  0.02284  1.0000
  H   H22       1.0  0.96868  0.11860  0.99955  1.0000
  H   H23       1.0  0.98839  0.05962  0.05048  1.0000
  H   H24       1.0  0.04535  0.06887  0.04142  1.0000
  H   H25       1.0  0.00750  0.94050  0.96870  1.0000
