data_image0
_chemical_formula_structural       C7NCN2C5OC2H21
_chemical_formula_sum              "C15 N3 O1 H21"
_cell_length_a       30
_cell_length_b       30
_cell_length_c       30
_cell_angle_alpha    90
_cell_angle_beta     90
_cell_angle_gamma    90

_space_group_name_H-M_alt    "P 1"
_space_group_IT_number       1

loop_
  _space_group_symop_operation_xyz
  'x, y, z'

loop_
  _atom_site_type_symbol
  _atom_site_label
  _atom_site_symmetry_multiplicity
  _atom_site_fract_x
  _atom_site_fract_y
  _atom_site_fract_z
  _atom_site_occupancy
  C   C1        1.0  0.83976  0.07488  0.96957  1.0000
  C   C2        1.0  0.87573  0.04286  0.98299  1.0000
  C   C3        1.0  0.89352  0.01298  0.95197  1.0000
  C   C4        1.0  0.92781  0.98391  0.96414  1.0000
  C   C5        1.0  0.94530  0.98423  0.00754  1.0000
  C   C6        1.0  0.98274  0.95316  0.02151  1.0000
  C   C7        1.0  0.97314  0.90359  0.01074  1.0000
  N   N1        1.0  0.00148  0.89158  0.97154  1.0000
  C   C8        1.0  0.02842  0.92540  0.96763  1.0000
  N   N2        1.0  0.06035  0.92692  0.93619  1.0000
  N   N3        1.0  0.02392  0.96012  0.99633  1.0000
  C   C9        1.0  0.04270  0.00464  0.99129  1.0000
  C   C10       1.0  0.05901  0.02400  0.03598  1.0000
  C   C11       1.0  0.09722  0.99775  0.05683  1.0000
  C   C12       1.0  0.13793  0.02109  0.03882  1.0000
  C   C13       1.0  0.12273  0.06910  0.03793  1.0000
  O   O1        1.0  0.07591  0.06848  0.02843  1.0000
  C   C14       1.0  0.92768  0.01474  0.03832  1.0000
  C   C15       1.0  0.89339  0.04383  0.02612  1.0000
  H   H1        1.0  0.81833  0.08304  0.99797  1.0000
  H   H2        1.0  0.81842  0.06041  0.94373  1.0000
  H   H3        1.0  0.85459  0.10565  0.95676  1.0000
  H   H4        1.0  0.88090  0.01210  0.91799  1.0000
  H   H5        1.0  0.94113  0.96108  0.93924  1.0000
  H   H6        1.0  0.98904  0.95644  0.05737  1.0000
  H   H7        1.0  0.93800  0.89682  0.00352  1.0000
  H   H8        1.0  0.98323  0.88235  0.03872  1.0000
  H   H9        1.0  0.06257  0.89700  0.92056  1.0000
  H   H10       1.0  0.09037  0.93639  0.94816  1.0000
  H   H11       1.0  0.07078  0.00460  0.96790  1.0000
  H   H12       1.0  0.01843  0.02741  0.97618  1.0000
  H   H13       1.0  0.03112  0.02655  0.05938  1.0000
  H   H14       1.0  0.09671  0.96202  0.04970  1.0000
  H   H15       1.0  0.09622  0.00176  0.09317  1.0000
  H   H16       1.0  0.16782  0.01603  0.05903  1.0000
  H   H17       1.0  0.14496  0.00948  0.00490  1.0000
  H   H18       1.0  0.12732  0.08503  0.07046  1.0000
  H   H19       1.0  0.14013  0.08888  0.01273  1.0000
  H   H20       1.0  0.94064  0.01635  0.07215  1.0000
  H   H21       1.0  0.88057  0.06734  0.05057  1.0000
