data_image0
_chemical_formula_structural       C2NC4NCSNC3FC2FC3OH11
_chemical_formula_sum              "C15 N3 S1 F2 O1 H11"
_cell_length_a       30
_cell_length_b       30
_cell_length_c       30
_cell_angle_alpha    90
_cell_angle_beta     90
_cell_angle_gamma    90

_space_group_name_H-M_alt    "P 1"
_space_group_IT_number       1

loop_
  _space_group_symop_operation_xyz
  'x, y, z'

loop_
  _atom_site_type_symbol
  _atom_site_label
  _atom_site_symmetry_multiplicity
  _atom_site_fract_x
  _atom_site_fract_y
  _atom_site_fract_z
  _atom_site_occupancy
  C   C1        1.0  0.23425  0.02326  0.02583  1.0000
  C   C2        1.0  0.18937  0.00659  0.01448  1.0000
  N   N1        1.0  0.17802  0.96820  0.99629  1.0000
  C   C3        1.0  0.13246  0.97063  0.99362  1.0000
  C   C4        1.0  0.10087  0.94058  0.97723  1.0000
  C   C5        1.0  0.05560  0.95284  0.97890  1.0000
  C   C6        1.0  0.04178  0.99371  0.99697  1.0000
  N   N2        1.0  0.99678  0.00770  0.99830  1.0000
  C   C7        1.0  0.95705  0.98328  0.99933  1.0000
  S   S1        1.0  0.95190  0.92942  0.01267  1.0000
  N   N3        1.0  0.92238  0.01207  0.98726  1.0000
  C   C8        1.0  0.87571  0.00837  0.99250  1.0000
  C   C9        1.0  0.85496  0.98288  0.02543  1.0000
  C   C10       1.0  0.80855  0.98227  0.02865  1.0000
  F   F1        1.0  0.78918  0.95774  0.06054  1.0000
  C   C11       1.0  0.78208  0.00698  0.99997  1.0000
  C   C12       1.0  0.80278  0.03294  0.96792  1.0000
  F   F2        1.0  0.77795  0.05752  0.94012  1.0000
  C   C13       1.0  0.84907  0.03414  0.96411  1.0000
  C   C14       1.0  0.07356  0.02441  0.01253  1.0000
  C   C15       1.0  0.11790  0.01105  0.01040  1.0000
  O   O1        1.0  0.15445  0.03452  0.02390  1.0000
  H   H1        1.0  0.25971  0.99865  0.01711  1.0000
  H   H2        1.0  0.23668  0.03004  0.06158  1.0000
  H   H3        1.0  0.24140  0.05404  0.00764  1.0000
  H   H4        1.0  0.11112  0.90884  0.96329  1.0000
  H   H5        1.0  0.03183  0.92967  0.96445  1.0000
  H   H6        1.0  0.99230  0.04000  0.00713  1.0000
  H   H7        1.0  0.93240  0.03575  0.96533  1.0000
  H   H8        1.0  0.87352  0.96398  0.04998  1.0000
  H   H9        1.0  0.74609  0.00626  0.00285  1.0000
  H   H10       1.0  0.86352  0.05505  0.93835  1.0000
  H   H11       1.0  0.06482  0.05662  0.02623  1.0000
