data_image0
_chemical_formula_structural       C3NCNCOCNC3OC2SCO2CNH16
_chemical_formula_sum              "C13 N4 O4 S1 H16"
_cell_length_a       30
_cell_length_b       30
_cell_length_c       30
_cell_angle_alpha    90
_cell_angle_beta     90
_cell_angle_gamma    90

_space_group_name_H-M_alt    "P 1"
_space_group_IT_number       1

loop_
  _space_group_symop_operation_xyz
  'x, y, z'

loop_
  _atom_site_type_symbol
  _atom_site_label
  _atom_site_symmetry_multiplicity
  _atom_site_fract_x
  _atom_site_fract_y
  _atom_site_fract_z
  _atom_site_occupancy
  C   C1        1.0  0.21418  0.99670  0.99211  1.0000
  C   C2        1.0  0.16499  0.99946  0.98458  1.0000
  C   C3        1.0  0.13899  0.96114  0.98343  1.0000
  N   N1        1.0  0.09431  0.96190  0.97703  1.0000
  C   C4        1.0  0.07552  0.00228  0.97193  1.0000
  N   N2        1.0  0.02967  0.00713  0.96507  1.0000
  C   C5        1.0  0.99850  0.97333  0.96450  1.0000
  O   O1        1.0  0.00551  0.93336  0.97008  1.0000
  C   C6        1.0  0.95147  0.98997  0.95457  1.0000
  N   N3        1.0  0.93315  0.01811  0.99173  1.0000
  C   C7        1.0  0.88832  0.00257  0.00607  1.0000
  C   C8        1.0  0.89306  0.96295  0.03565  1.0000
  C   C9        1.0  0.91892  0.95896  0.07354  1.0000
  O   O2        1.0  0.91401  0.91812  0.09229  1.0000
  C   C10       1.0  0.88518  0.89510  0.06615  1.0000
  C   C11       1.0  0.87115  0.92103  0.03109  1.0000
  S   S1        1.0  0.93688  0.07369  0.98260  1.0000
  C   C12       1.0  0.93304  0.09625  0.03746  1.0000
  O   O3        1.0  0.89833  0.08692  0.95692  1.0000
  O   O4        1.0  0.98168  0.08213  0.96642  1.0000
  C   C13       1.0  0.10170  0.04066  0.97318  1.0000
  N   N4        1.0  0.14650  0.04031  0.97953  1.0000
  H   H1        1.0  0.22963  0.02954  0.98832  1.0000
  H   H2        1.0  0.22108  0.98469  0.02585  1.0000
  H   H3        1.0  0.22957  0.97412  0.96791  1.0000
  H   H4        1.0  0.15337  0.92822  0.98765  1.0000
  H   H5        1.0  0.01811  0.03887  0.96183  1.0000
  H   H6        1.0  0.95170  0.00832  0.92296  1.0000
  H   H7        1.0  0.93048  0.96063  0.94865  1.0000
  H   H8        1.0  0.87058  0.02836  0.02482  1.0000
  H   H9        1.0  0.86778  0.99477  0.97686  1.0000
  H   H10       1.0  0.94170  0.98112  0.09061  1.0000
  H   H11       1.0  0.87814  0.86135  0.07672  1.0000
  H   H12       1.0  0.84807  0.91093  0.00534  1.0000
  H   H13       1.0  0.95734  0.07962  0.05881  1.0000
  H   H14       1.0  0.89925  0.09213  0.05015  1.0000
  H   H15       1.0  0.94093  0.13174  0.03525  1.0000
  H   H16       1.0  0.08722  0.07354  0.96918  1.0000
