data_image0
_chemical_formula_structural       C2N2C2OCOC4ClC4SH13
_chemical_formula_sum              "C13 N2 O2 Cl1 S1 H13"
_cell_length_a       30
_cell_length_b       30
_cell_length_c       30
_cell_angle_alpha    90
_cell_angle_beta     90
_cell_angle_gamma    90

_space_group_name_H-M_alt    "P 1"
_space_group_IT_number       1

loop_
  _space_group_symop_operation_xyz
  'x, y, z'

loop_
  _atom_site_type_symbol
  _atom_site_label
  _atom_site_symmetry_multiplicity
  _atom_site_fract_x
  _atom_site_fract_y
  _atom_site_fract_z
  _atom_site_occupancy
  C   C1        1.0  0.05392  0.09162  0.98352  1.0000
  C   C2        1.0  0.02485  0.05519  0.99973  1.0000
  N   N1        1.0  0.98114  0.06445  0.00599  1.0000
  N   N2        1.0  0.96326  0.02577  0.02109  1.0000
  C   C3        1.0  0.91628  0.02351  0.03147  1.0000
  C   C4        1.0  0.88605  0.03694  0.99262  1.0000
  O   O1        1.0  0.84038  0.03154  0.00641  1.0000
  C   C5        1.0  0.89326  0.00861  0.95073  1.0000
  O   O2        1.0  0.88336  0.96314  0.96102  1.0000
  C   C6        1.0  0.99421  0.99326  0.02377  1.0000
  C   C7        1.0  0.03331  0.01050  0.01061  1.0000
  C   C8        1.0  0.06975  0.98041  0.01147  1.0000
  C   C9        1.0  0.11599  0.98099  0.00148  1.0000
  Cl  Cl1       1.0  0.13956  0.02917  0.98245  1.0000
  C   C10       1.0  0.14338  0.94353  0.00643  1.0000
  C   C11       1.0  0.12568  0.90374  0.02159  1.0000
  C   C12       1.0  0.08054  0.90087  0.03194  1.0000
  C   C13       1.0  0.05306  0.93879  0.02687  1.0000
  S   S1        1.0  0.99590  0.94021  0.03845  1.0000
  H   H1        1.0  0.06834  0.08322  0.95112  1.0000
  H   H2        1.0  0.03508  0.12261  0.97904  1.0000
  H   H3        1.0  0.08038  0.09873  0.00756  1.0000
  H   H4        1.0  0.90827  0.98982  0.04309  1.0000
  H   H5        1.0  0.91055  0.04563  0.06001  1.0000
  H   H6        1.0  0.89081  0.07219  0.98440  1.0000
  H   H7        1.0  0.83399  0.99973  0.00291  1.0000
  H   H8        1.0  0.92740  0.01089  0.93815  1.0000
  H   H9        1.0  0.87017  0.01902  0.92445  1.0000
  H   H10       1.0  0.88893  0.94610  0.93394  1.0000
  H   H11       1.0  0.17867  0.94555  0.99838  1.0000
  H   H12       1.0  0.14697  0.87466  0.02546  1.0000
  H   H13       1.0  0.06656  0.86962  0.04386  1.0000
