data_image0
_chemical_formula_structural       C2N2C3NC9ClC3H12
_chemical_formula_sum              "C17 N3 Cl1 H12"
_cell_length_a       30
_cell_length_b       30
_cell_length_c       30
_cell_angle_alpha    90
_cell_angle_beta     90
_cell_angle_gamma    90

_space_group_name_H-M_alt    "P 1"
_space_group_IT_number       1

loop_
  _space_group_symop_operation_xyz
  'x, y, z'

loop_
  _atom_site_type_symbol
  _atom_site_label
  _atom_site_symmetry_multiplicity
  _atom_site_fract_x
  _atom_site_fract_y
  _atom_site_fract_z
  _atom_site_occupancy
  C   C1        1.0  0.97851  0.92417  0.93694  1.0000
  C   C2        1.0  0.95467  0.95183  0.97035  1.0000
  N   N1        1.0  0.91565  0.93804  0.98696  1.0000
  N   N2        1.0  0.90311  0.97070  0.01552  1.0000
  C   C3        1.0  0.86451  0.97228  0.04121  1.0000
  C   C4        1.0  0.85666  0.00704  0.06811  1.0000
  C   C5        1.0  0.89167  0.04220  0.06774  1.0000
  N   N3        1.0  0.92803  0.04191  0.04424  1.0000
  C   C6        1.0  0.93427  0.00537  0.01744  1.0000
  C   C7        1.0  0.96810  0.99323  0.98869  1.0000
  C   C8        1.0  0.00771  0.01983  0.98042  1.0000
  C   C9        1.0  0.00287  0.05852  0.95459  1.0000
  C   C10       1.0  0.03972  0.08465  0.94424  1.0000
  C   C11       1.0  0.08177  0.07234  0.95957  1.0000
  C   C12       1.0  0.08762  0.03397  0.98571  1.0000
  C   C13       1.0  0.13033  0.02235  0.00100  1.0000
  C   C14       1.0  0.13662  0.98459  0.02725  1.0000
  Cl  Cl1       1.0  0.18924  0.97102  0.04561  1.0000
  C   C15       1.0  0.10065  0.95790  0.03881  1.0000
  C   C16       1.0  0.05800  0.96905  0.02380  1.0000
  C   C17       1.0  0.05035  0.00702  0.99676  1.0000
  H   H1        1.0  0.00384  0.90363  0.95331  1.0000
  H   H2        1.0  0.95552  0.90198  0.91929  1.0000
  H   H3        1.0  0.99499  0.94511  0.91202  1.0000
  H   H4        1.0  0.84219  0.94418  0.03783  1.0000
  H   H5        1.0  0.82761  0.01071  0.08903  1.0000
  H   H6        1.0  0.88517  0.07084  0.08985  1.0000
  H   H7        1.0  0.97013  0.06841  0.94249  1.0000
  H   H8        1.0  0.03568  0.11461  0.92428  1.0000
  H   H9        1.0  0.11015  0.09328  0.95106  1.0000
  H   H10       1.0  0.15894  0.04293  0.99250  1.0000
  H   H11       1.0  0.10530  0.92856  0.05952  1.0000
  H   H12       1.0  0.03041  0.94776  0.03386  1.0000
