data_image0
_chemical_formula_structural       C7NC2NC9ONCOH29
_chemical_formula_sum              "C19 N3 O2 H29"
_cell_length_a       30
_cell_length_b       30
_cell_length_c       30
_cell_angle_alpha    90
_cell_angle_beta     90
_cell_angle_gamma    90

_space_group_name_H-M_alt    "P 1"
_space_group_IT_number       1

loop_
  _space_group_symop_operation_xyz
  'x, y, z'

loop_
  _atom_site_type_symbol
  _atom_site_label
  _atom_site_symmetry_multiplicity
  _atom_site_fract_x
  _atom_site_fract_y
  _atom_site_fract_z
  _atom_site_occupancy
  C   C1        1.0  0.22891  0.02003  0.03915  1.0000
  C   C2        1.0  0.18553  0.02540  0.01525  1.0000
  C   C3        1.0  0.17513  0.06082  0.98992  1.0000
  C   C4        1.0  0.13261  0.06411  0.96785  1.0000
  C   C5        1.0  0.10236  0.03139  0.97200  1.0000
  C   C6        1.0  0.05686  0.03223  0.94988  1.0000
  C   C7        1.0  0.01815  0.04714  0.98153  1.0000
  N   N1        1.0  0.98416  0.01271  0.99067  1.0000
  C   C8        1.0  0.93901  0.03246  0.99569  1.0000
  C   C9        1.0  0.89851  0.99984  0.98837  1.0000
  N   N2        1.0  0.90851  0.97067  0.94978  1.0000
  C   C10       1.0  0.85623  0.02733  0.97782  1.0000
  C   C11       1.0  0.81477  0.99881  0.96882  1.0000
  C   C12       1.0  0.81382  0.95524  0.99517  1.0000
  C   C13       1.0  0.84044  0.95883  0.03809  1.0000
  C   C14       1.0  0.88962  0.97025  0.02986  1.0000
  C   C15       1.0  0.99566  0.98213  0.02708  1.0000
  C   C16       1.0  0.04470  0.97345  0.03844  1.0000
  C   C17       1.0  0.07695  0.96002  0.00070  1.0000
  C   C18       1.0  0.05656  0.95168  0.95434  1.0000
  O   O1        1.0  0.04751  0.99059  0.92810  1.0000
  N   N3        1.0  0.11243  0.99381  0.99711  1.0000
  C   C19       1.0  0.15207  0.98863  0.02057  1.0000
  O   O2        1.0  0.16036  0.95646  0.04453  1.0000
  H   H1        1.0  0.25075  0.04889  0.03428  1.0000
  H   H2        1.0  0.24662  0.99052  0.02702  1.0000
  H   H3        1.0  0.22341  0.01636  0.07506  1.0000
  H   H4        1.0  0.19852  0.08804  0.98530  1.0000
  H   H5        1.0  0.12606  0.09366  0.94804  1.0000
  H   H6        1.0  0.05800  0.05667  0.92264  1.0000
  H   H7        1.0  0.03054  0.06257  0.01232  1.0000
  H   H8        1.0  0.00228  0.07492  0.96368  1.0000
  H   H9        1.0  0.93546  0.05843  0.97008  1.0000
  H   H10       1.0  0.93599  0.04971  0.02783  1.0000
  H   H11       1.0  0.90839  0.98949  0.92144  1.0000
  H   H12       1.0  0.94135  0.96155  0.95280  1.0000
  H   H13       1.0  0.84925  0.04948  0.00614  1.0000
  H   H14       1.0  0.86165  0.04934  0.94910  1.0000
  H   H15       1.0  0.78512  0.01869  0.97687  1.0000
  H   H16       1.0  0.81235  0.99115  0.93313  1.0000
  H   H17       1.0  0.77919  0.94613  0.00249  1.0000
  H   H18       1.0  0.82741  0.92814  0.97473  1.0000
  H   H19       1.0  0.82555  0.98478  0.05916  1.0000
  H   H20       1.0  0.83815  0.92770  0.05707  1.0000
  H   H21       1.0  0.90815  0.93883  0.02720  1.0000
  H   H22       1.0  0.90215  0.98655  0.06010  1.0000
  H   H23       1.0  0.98045  0.99395  0.05821  1.0000
  H   H24       1.0  0.98055  0.94972  0.01981  1.0000
  H   H25       1.0  0.04499  0.94632  0.06309  1.0000
  H   H26       1.0  0.05776  0.00232  0.05681  1.0000
  H   H27       1.0  0.09244  0.92853  0.01109  1.0000
  H   H28       1.0  0.02624  0.93143  0.95625  1.0000
  H   H29       1.0  0.08038  0.93214  0.93460  1.0000
