data_image0
_chemical_formula_structural       C5OC3ONC11H21
_chemical_formula_sum              "C19 O2 N1 H21"
_cell_length_a       30
_cell_length_b       30
_cell_length_c       30
_cell_angle_alpha    90
_cell_angle_beta     90
_cell_angle_gamma    90

_space_group_name_H-M_alt    "P 1"
_space_group_IT_number       1

loop_
  _space_group_symop_operation_xyz
  'x, y, z'

loop_
  _atom_site_type_symbol
  _atom_site_label
  _atom_site_symmetry_multiplicity
  _atom_site_fract_x
  _atom_site_fract_y
  _atom_site_fract_z
  _atom_site_occupancy
  C   C1        1.0  0.75618  0.04449  0.02390  1.0000
  C   C2        1.0  0.79708  0.01736  0.01432  1.0000
  C   C3        1.0  0.79346  0.97206  0.00382  1.0000
  C   C4        1.0  0.83143  0.94718  0.99365  1.0000
  C   C5        1.0  0.87324  0.96742  0.99340  1.0000
  O   O1        1.0  0.90860  0.94037  0.98320  1.0000
  C   C6        1.0  0.94885  0.96371  0.97244  1.0000
  C   C7        1.0  0.95938  0.99970  0.00666  1.0000
  C   C8        1.0  0.00499  0.01978  0.99815  1.0000
  O   O2        1.0  0.01051  0.05819  0.98531  1.0000
  N   N1        1.0  0.03981  0.99069  0.00607  1.0000
  C   C9        1.0  0.08573  0.00604  0.00362  1.0000
  C   C10       1.0  0.11822  0.96716  0.99842  1.0000
  C   C11       1.0  0.16601  0.98260  0.99710  1.0000
  C   C12       1.0  0.18526  0.99643  0.95684  1.0000
  C   C13       1.0  0.22931  0.01134  0.95569  1.0000
  C   C14       1.0  0.25446  0.01268  0.99472  1.0000
  C   C15       1.0  0.23557  0.99918  0.03495  1.0000
  C   C16       1.0  0.19151  0.98427  0.03619  1.0000
  C   C17       1.0  0.92254  0.03472  0.00426  1.0000
  C   C18       1.0  0.87757  0.01257  0.00417  1.0000
  C   C19       1.0  0.83924  0.03748  0.01396  1.0000
  H   H1        1.0  0.74324  0.05887  0.99298  1.0000
  H   H2        1.0  0.73017  0.02391  0.03914  1.0000
  H   H3        1.0  0.76367  0.07150  0.04728  1.0000
  H   H4        1.0  0.76104  0.95584  0.00340  1.0000
  H   H5        1.0  0.82836  0.91201  0.98558  1.0000
  H   H6        1.0  0.94613  0.97737  0.93858  1.0000
  H   H7        1.0  0.97537  0.93863  0.97134  1.0000
  H   H8        1.0  0.95934  0.98507  0.04024  1.0000
  H   H9        1.0  0.03347  0.96411  0.02590  1.0000
  H   H10       1.0  0.09249  0.02470  0.03431  1.0000
  H   H11       1.0  0.08899  0.02942  0.97573  1.0000
  H   H12       1.0  0.11378  0.94333  0.02584  1.0000
  H   H13       1.0  0.11058  0.94841  0.96794  1.0000
  H   H14       1.0  0.16604  0.99573  0.92610  1.0000
  H   H15       1.0  0.24399  0.02198  0.92432  1.0000
  H   H16       1.0  0.28875  0.02433  0.99379  1.0000
  H   H17       1.0  0.25516  0.00032  0.06541  1.0000
  H   H18       1.0  0.17728  0.97397  0.06791  1.0000
  H   H19       1.0  0.92543  0.05487  0.97387  1.0000
  H   H20       1.0  0.92543  0.05738  0.03281  1.0000
  H   H21       1.0  0.84233  0.07284  0.02152  1.0000
