data_image0
_chemical_formula_structural       C5NCOC2NCO2C9NCOCOC2H23
_chemical_formula_sum              "C22 N3 O5 H23"
_cell_length_a       30
_cell_length_b       30
_cell_length_c       30
_cell_angle_alpha    90
_cell_angle_beta     90
_cell_angle_gamma    90

_space_group_name_H-M_alt    "P 1"
_space_group_IT_number       1

loop_
  _space_group_symop_operation_xyz
  'x, y, z'

loop_
  _atom_site_type_symbol
  _atom_site_label
  _atom_site_symmetry_multiplicity
  _atom_site_fract_x
  _atom_site_fract_y
  _atom_site_fract_z
  _atom_site_occupancy
  C   C1        1.0  0.27943  0.06020  0.03105  1.0000
  C   C2        1.0  0.23152  0.05034  0.02068  1.0000
  C   C3        1.0  0.19728  0.06658  0.04771  1.0000
  C   C4        1.0  0.15280  0.05640  0.03810  1.0000
  C   C5        1.0  0.14175  0.02965  0.00149  1.0000
  N   N1        1.0  0.09614  0.02086  0.99436  1.0000
  C   C6        1.0  0.07729  0.99532  0.96080  1.0000
  O   O1        1.0  0.09707  0.97626  0.93055  1.0000
  C   C7        1.0  0.02696  0.99316  0.96529  1.0000
  C   C8        1.0  0.00666  0.96301  0.92944  1.0000
  N   N2        1.0  0.95827  0.95828  0.93280  1.0000
  C   C9        1.0  0.94282  0.93067  0.96651  1.0000
  O   O2        1.0  0.96724  0.91288  0.99401  1.0000
  O   O3        1.0  0.89791  0.92711  0.96758  1.0000
  C   C10       1.0  0.87480  0.93842  0.00843  1.0000
  C   C11       1.0  0.89191  0.91108  0.04852  1.0000
  C   C12       1.0  0.82612  0.92312  0.00113  1.0000
  C   C13       1.0  0.87560  0.98961  0.01397  1.0000
  C   C14       1.0  0.88550  0.00891  0.05565  1.0000
  C   C15       1.0  0.88140  0.05479  0.06288  1.0000
  C   C16       1.0  0.86664  0.08254  0.02886  1.0000
  C   C17       1.0  0.85685  0.06467  0.98722  1.0000
  C   C18       1.0  0.86279  0.01908  0.97922  1.0000
  N   N3        1.0  0.85279  0.00375  0.93612  1.0000
  C   C19       1.0  0.88375  0.98651  0.90655  1.0000
  O   O4        1.0  0.87298  0.97043  0.87056  1.0000
  C   C20       1.0  0.93321  0.99379  0.91633  1.0000
  O   O5        1.0  0.94840  0.03102  0.90814  1.0000
  C   C21       1.0  0.17599  0.01326  0.97467  1.0000
  C   C22       1.0  0.22052  0.02341  0.98424  1.0000
  H   H1        1.0  0.29721  0.07026  0.00080  1.0000
  H   H2        1.0  0.28250  0.08747  0.05514  1.0000
  H   H3        1.0  0.29548  0.03058  0.04511  1.0000
  H   H4        1.0  0.20488  0.08732  0.07646  1.0000
  H   H5        1.0  0.12704  0.06967  0.05982  1.0000
  H   H6        1.0  0.07488  0.03483  0.01653  1.0000
  H   H7        1.0  0.01895  0.98071  0.99866  1.0000
  H   H8        1.0  0.01377  0.02709  0.96265  1.0000
  H   H9        1.0  0.01456  0.97620  0.89623  1.0000
  H   H10       1.0  0.02152  0.92962  0.93133  1.0000
  H   H11       1.0  0.89481  0.87573  0.03975  1.0000
  H   H12       1.0  0.86938  0.91376  0.07719  1.0000
  H   H13       1.0  0.92483  0.92198  0.05991  1.0000
  H   H14       1.0  0.82463  0.88677  0.99727  1.0000
  H   H15       1.0  0.81148  0.93673  0.97061  1.0000
  H   H16       1.0  0.80465  0.93259  0.02914  1.0000
  H   H17       1.0  0.89566  0.98864  0.08393  1.0000
  H   H18       1.0  0.88910  0.06868  0.09547  1.0000
  H   H19       1.0  0.86271  0.11811  0.03472  1.0000
  H   H20       1.0  0.84589  0.08688  0.96074  1.0000
  H   H21       1.0  0.82780  0.01895  0.91923  1.0000
  H   H22       1.0  0.16934  0.99229  0.94595  1.0000
  H   H23       1.0  0.24657  0.01001  0.96285  1.0000
