data_image0
_chemical_formula_structural       C7NCONC8H20
_chemical_formula_sum              "C16 N2 O1 H20"
_cell_length_a       30
_cell_length_b       30
_cell_length_c       30
_cell_angle_alpha    90
_cell_angle_beta     90
_cell_angle_gamma    90

_space_group_name_H-M_alt    "P 1"
_space_group_IT_number       1

loop_
  _space_group_symop_operation_xyz
  'x, y, z'

loop_
  _atom_site_type_symbol
  _atom_site_label
  _atom_site_symmetry_multiplicity
  _atom_site_fract_x
  _atom_site_fract_y
  _atom_site_fract_z
  _atom_site_occupancy
  C   C1        1.0  0.14083  0.96254  0.04500  1.0000
  C   C2        1.0  0.10318  0.98980  0.02665  1.0000
  C   C3        1.0  0.10627  0.03599  0.02460  1.0000
  C   C4        1.0  0.07133  0.06092  0.00679  1.0000
  C   C5        1.0  0.03235  0.04065  0.98997  1.0000
  C   C6        1.0  0.99723  0.07215  0.97165  1.0000
  C   C7        1.0  0.95473  0.07915  0.99960  1.0000
  N   N1        1.0  0.93559  0.03888  0.01820  1.0000
  C   C8        1.0  0.95478  0.02241  0.05785  1.0000
  O   O1        1.0  0.97106  0.04384  0.08827  1.0000
  N   N2        1.0  0.95632  0.97618  0.05458  1.0000
  C   C9        1.0  0.94797  0.96314  0.00891  1.0000
  C   C10       1.0  0.92424  0.91811  0.00712  1.0000
  C   C11       1.0  0.98893  0.96515  0.97655  1.0000
  C   C12       1.0  0.96852  0.97794  0.93127  1.0000
  C   C13       1.0  0.92462  0.00207  0.94122  1.0000
  C   C14       1.0  0.91913  0.00162  0.99171  1.0000
  C   C15       1.0  0.02886  0.99350  0.99137  1.0000
  C   C16       1.0  0.06489  0.96912  0.00984  1.0000
  H   H1        1.0  0.15982  0.98144  0.06979  1.0000
  H   H2        1.0  0.12827  0.93255  0.06160  1.0000
  H   H3        1.0  0.16332  0.95260  0.01805  1.0000
  H   H4        1.0  0.13566  0.05309  0.03714  1.0000
  H   H5        1.0  0.07475  0.09705  0.00643  1.0000
  H   H6        1.0  0.01207  0.10531  0.96678  1.0000
  H   H7        1.0  0.98915  0.06230  0.93760  1.0000
  H   H8        1.0  0.96262  0.10168  0.02729  1.0000
  H   H9        1.0  0.92911  0.09567  0.97950  1.0000
  H   H10       1.0  0.97940  0.96146  0.07429  1.0000
  H   H11       1.0  0.94570  0.89172  0.02042  1.0000
  H   H12       1.0  0.91486  0.90889  0.97308  1.0000
  H   H13       1.0  0.89379  0.91849  0.02731  1.0000
  H   H14       1.0  0.00175  0.93107  0.97238  1.0000
  H   H15       1.0  0.96078  0.94747  0.91251  1.0000
  H   H16       1.0  0.99093  0.99717  0.90990  1.0000
  H   H17       1.0  0.92283  0.03529  0.92642  1.0000
  H   H18       1.0  0.89744  0.98286  0.92602  1.0000
  H   H19       1.0  0.88392  0.99783  0.00084  1.0000
  H   H20       1.0  0.06301  0.93289  0.01153  1.0000
