data_image0
_chemical_formula_structural       C8NSO2CN2CNCOC3S2O2C9SH20
_chemical_formula_sum              "C23 N4 S4 O5 H20"
_cell_length_a       30
_cell_length_b       30
_cell_length_c       30
_cell_angle_alpha    90
_cell_angle_beta     90
_cell_angle_gamma    90

_space_group_name_H-M_alt    "P 1"
_space_group_IT_number       1

loop_
  _space_group_symop_operation_xyz
  'x, y, z'

loop_
  _atom_site_type_symbol
  _atom_site_label
  _atom_site_symmetry_multiplicity
  _atom_site_fract_x
  _atom_site_fract_y
  _atom_site_fract_z
  _atom_site_occupancy
  C   C1        1.0  0.82193  0.96726  0.07198  1.0000
  C   C2        1.0  0.79064  0.97978  0.03483  1.0000
  C   C3        1.0  0.77421  0.94514  0.00797  1.0000
  C   C4        1.0  0.74394  0.95379  0.97394  1.0000
  C   C5        1.0  0.72933  0.99719  0.96660  1.0000
  C   C6        1.0  0.74503  0.03265  0.99285  1.0000
  C   C7        1.0  0.72743  0.07846  0.98236  1.0000
  C   C8        1.0  0.77682  0.02384  0.02634  1.0000
  N   N1        1.0  0.79605  0.05941  0.05180  1.0000
  S   S1        1.0  0.83924  0.08775  0.02805  1.0000
  O   O1        1.0  0.84841  0.12481  0.05767  1.0000
  O   O2        1.0  0.82871  0.09619  0.98165  1.0000
  C   C9        1.0  0.88787  0.05475  0.02891  1.0000
  N   N2        1.0  0.90360  0.03326  0.06386  1.0000
  N   N3        1.0  0.94218  0.01016  0.05346  1.0000
  C   C10       1.0  0.95395  0.01629  0.01183  1.0000
  N   N4        1.0  0.98946  0.99997  0.98832  1.0000
  C   C11       1.0  0.02157  0.97395  0.00814  1.0000
  O   O3        1.0  0.02349  0.96297  0.04738  1.0000
  C   C12       1.0  0.05804  0.95934  0.97784  1.0000
  C   C13       1.0  0.10142  0.95711  0.99499  1.0000
  C   C14       1.0  0.13681  0.94413  0.96763  1.0000
  S   S2        1.0  0.19178  0.94203  0.98983  1.0000
  S   S3        1.0  0.22219  0.99484  0.95578  1.0000
  O   O4        1.0  0.19644  0.03493  0.96399  1.0000
  O   O5        1.0  0.23139  0.97991  0.91070  1.0000
  C   C15       1.0  0.27394  0.00058  0.98396  1.0000
  C   C16       1.0  0.31167  0.97853  0.96773  1.0000
  C   C17       1.0  0.35228  0.98354  0.98980  1.0000
  C   C18       1.0  0.35511  0.01060  0.02756  1.0000
  C   C19       1.0  0.31744  0.03292  0.04333  1.0000
  C   C20       1.0  0.27669  0.02813  0.02147  1.0000
  C   C21       1.0  0.12839  0.93237  0.92330  1.0000
  C   C22       1.0  0.08508  0.93390  0.90630  1.0000
  C   C23       1.0  0.04982  0.94733  0.93348  1.0000
  S   S4        1.0  0.91926  0.04975  0.98161  1.0000
  H   H1        1.0  0.85444  0.95798  0.05834  1.0000
  H   H2        1.0  0.82636  0.99410  0.09622  1.0000
  H   H3        1.0  0.80855  0.93873  0.09045  1.0000
  H   H4        1.0  0.78481  0.91095  0.01388  1.0000
  H   H5        1.0  0.73141  0.92668  0.95343  1.0000
  H   H6        1.0  0.70540  0.00341  0.94004  1.0000
  H   H7        1.0  0.74390  0.09175  0.95265  1.0000
  H   H8        1.0  0.69148  0.07699  0.97601  1.0000
  H   H9        1.0  0.73203  0.10189  0.00987  1.0000
  H   H10       1.0  0.77356  0.08183  0.06387  1.0000
  H   H11       1.0  0.99255  0.01027  0.95647  1.0000
  H   H12       1.0  0.10729  0.96594  0.02971  1.0000
  H   H13       1.0  0.30982  0.95760  0.93818  1.0000
  H   H14       1.0  0.38182  0.96648  0.97754  1.0000
  H   H15       1.0  0.38685  0.01446  0.04467  1.0000
  H   H16       1.0  0.31994  0.05417  0.07259  1.0000
  H   H17       1.0  0.24756  0.04588  0.03379  1.0000
  H   H18       1.0  0.15543  0.92179  0.90151  1.0000
  H   H19       1.0  0.07894  0.92432  0.87187  1.0000
  H   H20       1.0  0.01625  0.94722  0.91991  1.0000
