data_image0
_chemical_formula_structural       C5SCNCNC9ONC4H19
_chemical_formula_sum              "C20 S1 N3 O1 H19"
_cell_length_a       30
_cell_length_b       30
_cell_length_c       30
_cell_angle_alpha    90
_cell_angle_beta     90
_cell_angle_gamma    90

_space_group_name_H-M_alt    "P 1"
_space_group_IT_number       1

loop_
  _space_group_symop_operation_xyz
  'x, y, z'

loop_
  _atom_site_type_symbol
  _atom_site_label
  _atom_site_symmetry_multiplicity
  _atom_site_fract_x
  _atom_site_fract_y
  _atom_site_fract_z
  _atom_site_occupancy
  C   C1        1.0  0.93701  0.92432  0.92442  1.0000
  C   C2        1.0  0.96574  0.93528  0.96392  1.0000
  C   C3        1.0  0.99312  0.90256  0.98286  1.0000
  C   C4        1.0  0.02053  0.91268  0.01921  1.0000
  C   C5        1.0  0.02158  0.95579  0.03699  1.0000
  S   S1        1.0  0.05682  0.96711  0.08354  1.0000
  C   C6        1.0  0.08792  0.01385  0.06305  1.0000
  N   N1        1.0  0.07166  0.05365  0.07634  1.0000
  C   C7        1.0  0.09378  0.08937  0.06186  1.0000
  N   N2        1.0  0.13002  0.08910  0.03590  1.0000
  C   C8        1.0  0.14561  0.04931  0.02319  1.0000
  C   C9        1.0  0.18321  0.04808  0.99616  1.0000
  C   C10       1.0  0.20179  0.00798  0.98145  1.0000
  C   C11       1.0  0.18254  0.96785  0.99397  1.0000
  C   C12       1.0  0.14482  0.96818  0.02104  1.0000
  C   C13       1.0  0.12581  0.00899  0.03592  1.0000
  C   C14       1.0  0.99426  0.98863  0.01853  1.0000
  C   C15       1.0  0.96652  0.97827  0.98244  1.0000
  C   C16       1.0  0.93862  0.01424  0.96366  1.0000
  O   O1        1.0  0.95076  0.03235  0.92908  1.0000
  N   N3        1.0  0.90001  0.02497  0.98620  1.0000
  C   C17       1.0  0.88193  0.00326  0.02567  1.0000
  C   C18       1.0  0.84244  0.03225  0.03890  1.0000
  C   C19       1.0  0.82654  0.05084  0.99440  1.0000
  C   C20       1.0  0.86988  0.05883  0.96928  1.0000
  H   H1        1.0  0.93760  0.88857  0.91707  1.0000
  H   H2        1.0  0.94895  0.94199  0.89482  1.0000
  H   H3        1.0  0.90227  0.93344  0.93087  1.0000
  H   H4        1.0  0.99343  0.86886  0.96943  1.0000
  H   H5        1.0  0.04124  0.88649  0.03337  1.0000
  H   H6        1.0  0.08125  0.12171  0.07206  1.0000
  H   H7        1.0  0.19858  0.07938  0.98616  1.0000
  H   H8        1.0  0.23120  0.00837  0.96029  1.0000
  H   H9        1.0  0.19672  0.93646  0.98273  1.0000
  H   H10       1.0  0.13024  0.93639  0.03052  1.0000
  H   H11       1.0  0.99420  0.02235  0.03189  1.0000
  H   H12       1.0  0.90680  0.00089  0.05217  1.0000
  H   H13       1.0  0.87125  0.96966  0.01616  1.0000
  H   H14       1.0  0.81665  0.01361  0.05665  1.0000
  H   H15       1.0  0.85366  0.05962  0.06038  1.0000
  H   H16       1.0  0.80646  0.02571  0.97703  1.0000
  H   H17       1.0  0.80651  0.08109  0.99787  1.0000
  H   H18       1.0  0.86595  0.05621  0.93312  1.0000
  H   H19       1.0  0.88416  0.09146  0.97735  1.0000
