data_image0
_chemical_formula_structural       C5SO2C2ONC11H25
_chemical_formula_sum              "C18 S1 O3 N1 H25"
_cell_length_a       30
_cell_length_b       30
_cell_length_c       30
_cell_angle_alpha    90
_cell_angle_beta     90
_cell_angle_gamma    90

_space_group_name_H-M_alt    "P 1"
_space_group_IT_number       1

loop_
  _space_group_symop_operation_xyz
  'x, y, z'

loop_
  _atom_site_type_symbol
  _atom_site_label
  _atom_site_symmetry_multiplicity
  _atom_site_fract_x
  _atom_site_fract_y
  _atom_site_fract_z
  _atom_site_occupancy
  C   C1        1.0  0.26104  0.01538  0.99976  1.0000
  C   C2        1.0  0.21089  0.01512  0.99813  1.0000
  C   C3        1.0  0.18772  0.05555  0.00289  1.0000
  C   C4        1.0  0.14129  0.05672  0.00132  1.0000
  C   C5        1.0  0.11774  0.01714  0.99521  1.0000
  S   S1        1.0  0.05853  0.01858  0.99321  1.0000
  O   O1        1.0  0.04387  0.97837  0.97043  1.0000
  O   O2        1.0  0.04585  0.06222  0.97682  1.0000
  C   C6        1.0  0.04342  0.01358  0.04980  1.0000
  C   C7        1.0  0.99368  0.01453  0.05423  1.0000
  O   O3        1.0  0.97495  0.04293  0.07706  1.0000
  N   N1        1.0  0.97119  0.97977  0.03420  1.0000
  C   C8        1.0  0.92278  0.97777  0.03432  1.0000
  C   C9        1.0  0.90218  0.00893  0.99946  1.0000
  C   C10       1.0  0.85193  0.00553  0.99762  1.0000
  C   C11       1.0  0.82566  0.03672  0.01633  1.0000
  C   C12       1.0  0.77569  0.03618  0.01396  1.0000
  C   C13       1.0  0.75763  0.00351  0.97927  1.0000
  C   C14       1.0  0.78276  0.95939  0.98087  1.0000
  C   C15       1.0  0.83269  0.96620  0.97272  1.0000
  C   C16       1.0  0.14010  0.97665  0.98975  1.0000
  C   C17       1.0  0.18685  0.97527  0.99128  1.0000
  C   C18       1.0  0.21031  0.93133  0.98530  1.0000
  H   H1        1.0  0.27301  0.99339  0.02630  1.0000
  H   H2        1.0  0.27406  0.04879  0.00658  1.0000
  H   H3        1.0  0.27478  0.00449  0.96776  1.0000
  H   H4        1.0  0.20589  0.08660  0.00761  1.0000
  H   H5        1.0  0.12406  0.08847  0.00459  1.0000
  H   H6        1.0  0.05788  0.04162  0.06805  1.0000
  H   H7        1.0  0.05641  0.98220  0.06300  1.0000
  H   H8        1.0  0.98703  0.96216  0.00984  1.0000
  H   H9        1.0  0.91078  0.98637  0.06774  1.0000
  H   H10       1.0  0.91386  0.94300  0.02775  1.0000
  H   H11       1.0  0.91594  0.00150  0.96638  1.0000
  H   H12       1.0  0.91221  0.04340  0.00657  1.0000
  H   H13       1.0  0.84052  0.06452  0.03431  1.0000
  H   H14       1.0  0.76270  0.02755  0.04701  1.0000
  H   H15       1.0  0.76356  0.06973  0.00612  1.0000
  H   H16       1.0  0.72199  0.99793  0.98499  1.0000
  H   H17       1.0  0.76086  0.01808  0.94586  1.0000
  H   H18       1.0  0.77773  0.94375  0.01356  1.0000
  H   H19       1.0  0.76929  0.93636  0.95592  1.0000
  H   H20       1.0  0.85007  0.93549  0.98212  1.0000
  H   H21       1.0  0.83853  0.97127  0.93698  1.0000
  H   H22       1.0  0.12134  0.94612  0.98404  1.0000
  H   H23       1.0  0.23226  0.93254  0.95618  1.0000
  H   H24       1.0  0.18660  0.90407  0.98004  1.0000
  H   H25       1.0  0.22988  0.92327  0.01502  1.0000
