data_image0
_chemical_formula_structural       C8ONC4ONC3ClC2ClC6NH23
_chemical_formula_sum              "C23 O2 N3 Cl2 H23"
_cell_length_a       30
_cell_length_b       30
_cell_length_c       30
_cell_angle_alpha    90
_cell_angle_beta     90
_cell_angle_gamma    90

_space_group_name_H-M_alt    "P 1"
_space_group_IT_number       1

loop_
  _space_group_symop_operation_xyz
  'x, y, z'

loop_
  _atom_site_type_symbol
  _atom_site_label
  _atom_site_symmetry_multiplicity
  _atom_site_fract_x
  _atom_site_fract_y
  _atom_site_fract_z
  _atom_site_occupancy
  C   C1        1.0  0.89328  0.10855  0.91950  1.0000
  C   C2        1.0  0.90433  0.06740  0.94563  1.0000
  C   C3        1.0  0.91100  0.02673  0.92425  1.0000
  C   C4        1.0  0.92187  0.98879  0.94899  1.0000
  C   C5        1.0  0.92737  0.99001  0.99572  1.0000
  C   C6        1.0  0.92115  0.03142  0.01700  1.0000
  C   C7        1.0  0.90968  0.06947  0.99190  1.0000
  C   C8        1.0  0.92442  0.03862  0.06613  1.0000
  O   O1        1.0  0.90049  0.06634  0.08446  1.0000
  N   N1        1.0  0.95574  0.01399  0.09026  1.0000
  C   C9        1.0  0.00133  0.01692  0.07286  1.0000
  C   C10       1.0  0.01164  0.97144  0.05156  1.0000
  C   C11       1.0  0.03312  0.97377  0.00547  1.0000
  C   C12       1.0  0.08117  0.98980  0.00741  1.0000
  O   O2        1.0  0.09920  0.99994  0.04261  1.0000
  N   N2        1.0  0.10021  0.99129  0.96537  1.0000
  C   C13       1.0  0.14403  0.00425  0.95419  1.0000
  C   C14       1.0  0.15548  0.00350  0.90893  1.0000
  C   C15       1.0  0.19824  0.01582  0.89526  1.0000
  Cl  Cl1       1.0  0.21156  0.01463  0.83946  1.0000
  C   C16       1.0  0.23011  0.02897  0.92620  1.0000
  C   C17       1.0  0.21876  0.02970  0.97115  1.0000
  Cl  Cl2       1.0  0.25797  0.04588  0.00983  1.0000
  C   C18       1.0  0.17607  0.01747  0.98528  1.0000
  C   C19       1.0  0.96736  0.94595  0.05482  1.0000
  C   C20       1.0  0.94574  0.96670  0.09616  1.0000
  C   C21       1.0  0.89665  0.95310  0.10211  1.0000
  C   C22       1.0  0.88478  0.91376  0.07193  1.0000
  C   C23       1.0  0.89477  0.92321  0.02262  1.0000
  N   N3        1.0  0.93691  0.94872  0.01612  1.0000
  H   H1        1.0  0.87446  0.10019  0.88936  1.0000
  H   H2        1.0  0.87261  0.13132  0.93918  1.0000
  H   H3        1.0  0.92394  0.12579  0.90984  1.0000
  H   H4        1.0  0.90740  0.02403  0.88828  1.0000
  H   H5        1.0  0.92634  0.95730  0.93151  1.0000
  H   H6        1.0  0.90471  0.10113  0.00905  1.0000
  H   H7        1.0  0.02334  0.02261  0.10147  1.0000
  H   H8        1.0  0.00525  0.04507  0.04994  1.0000
  H   H9        1.0  0.03508  0.95443  0.07407  1.0000
  H   H10       1.0  0.01513  0.99658  0.98344  1.0000
  H   H11       1.0  0.03311  0.94052  0.99029  1.0000
  H   H12       1.0  0.08024  0.98240  0.93960  1.0000
  H   H13       1.0  0.13130  0.99338  0.88392  1.0000
  H   H14       1.0  0.26334  0.03853  0.91549  1.0000
  H   H15       1.0  0.16881  0.01855  0.02071  1.0000
  H   H16       1.0  0.97486  0.91056  0.06038  1.0000
  H   H17       1.0  0.96431  0.95616  0.12593  1.0000
  H   H18       1.0  0.89104  0.94360  0.13698  1.0000
  H   H19       1.0  0.87341  0.98046  0.09563  1.0000
  H   H20       1.0  0.90369  0.88435  0.08272  1.0000
  H   H21       1.0  0.84951  0.90508  0.07585  1.0000
  H   H22       1.0  0.86587  0.94040  0.00810  1.0000
  H   H23       1.0  0.89778  0.89145  0.00478  1.0000
