data_image0
_chemical_formula_structural       C7OC2NCONC3O2H18
_chemical_formula_sum              "C13 O4 N2 H18"
_cell_length_a       30
_cell_length_b       30
_cell_length_c       30
_cell_angle_alpha    90
_cell_angle_beta     90
_cell_angle_gamma    90

_space_group_name_H-M_alt    "P 1"
_space_group_IT_number       1

loop_
  _space_group_symop_operation_xyz
  'x, y, z'

loop_
  _atom_site_type_symbol
  _atom_site_label
  _atom_site_symmetry_multiplicity
  _atom_site_fract_x
  _atom_site_fract_y
  _atom_site_fract_z
  _atom_site_occupancy
  C   C1        1.0  0.87109  0.05406  0.92059  1.0000
  C   C2        1.0  0.86759  0.00992  0.94409  1.0000
  C   C3        1.0  0.82656  0.98749  0.94531  1.0000
  C   C4        1.0  0.82271  0.94651  0.96685  1.0000
  C   C5        1.0  0.85980  0.92759  0.98728  1.0000
  C   C6        1.0  0.90083  0.94960  0.98631  1.0000
  C   C7        1.0  0.90504  0.99079  0.96489  1.0000
  O   O1        1.0  0.94372  0.01495  0.96207  1.0000
  C   C8        1.0  0.98188  0.99808  0.98512  1.0000
  C   C9        1.0  0.02012  0.03123  0.97860  1.0000
  N   N1        1.0  0.05830  0.02317  0.00735  1.0000
  C   C10       1.0  0.08437  0.98609  0.00099  1.0000
  O   O2        1.0  0.07623  0.95812  0.97231  1.0000
  N   N2        1.0  0.12039  0.98326  0.02963  1.0000
  C   C11       1.0  0.15320  0.94852  0.02214  1.0000
  C   C12       1.0  0.12291  0.00705  0.07236  1.0000
  C   C13       1.0  0.14263  0.05374  0.06989  1.0000
  O   O3        1.0  0.15614  0.07534  0.10167  1.0000
  O   O4        1.0  0.14123  0.07266  0.02909  1.0000
  H   H1        1.0  0.83906  0.06422  0.90632  1.0000
  H   H2        1.0  0.88150  0.08005  0.94400  1.0000
  H   H3        1.0  0.89519  0.05195  0.89327  1.0000
  H   H4        1.0  0.79734  0.00186  0.92939  1.0000
  H   H5        1.0  0.79082  0.92933  0.96758  1.0000
  H   H6        1.0  0.85690  0.89556  0.00396  1.0000
  H   H7        1.0  0.92892  0.93353  0.00246  1.0000
  H   H8        1.0  0.97453  0.99506  0.02081  1.0000
  H   H9        1.0  0.99122  0.96543  0.97169  1.0000
  H   H10       1.0  0.03119  0.03105  0.94377  1.0000
  H   H11       1.0  0.00842  0.06510  0.98578  1.0000
  H   H12       1.0  0.07752  0.05042  0.01264  1.0000
  H   H13       1.0  0.14616  0.92072  0.04466  1.0000
  H   H14       1.0  0.15235  0.93646  0.98775  1.0000
  H   H15       1.0  0.18644  0.96184  0.02904  1.0000
  H   H16       1.0  0.08926  0.01001  0.08623  1.0000
  H   H17       1.0  0.14323  0.98735  0.09544  1.0000
  H   H18       1.0  0.15523  0.10190  0.03346  1.0000
