data_image0
_chemical_formula_structural       C5SO2NC2NC6OC2OC2OC5H26
_chemical_formula_sum              "C22 S1 O5 N2 H26"
_cell_length_a       30
_cell_length_b       30
_cell_length_c       30
_cell_angle_alpha    90
_cell_angle_beta     90
_cell_angle_gamma    90

_space_group_name_H-M_alt    "P 1"
_space_group_IT_number       1

loop_
  _space_group_symop_operation_xyz
  'x, y, z'

loop_
  _atom_site_type_symbol
  _atom_site_label
  _atom_site_symmetry_multiplicity
  _atom_site_fract_x
  _atom_site_fract_y
  _atom_site_fract_z
  _atom_site_occupancy
  C   C1        1.0  0.25710  0.94256  0.98198  1.0000
  C   C2        1.0  0.21864  0.97455  0.98278  1.0000
  C   C3        1.0  0.19065  0.97870  0.94580  1.0000
  C   C4        1.0  0.15452  0.00791  0.94694  1.0000
  C   C5        1.0  0.14562  0.03289  0.98547  1.0000
  S   S1        1.0  0.09879  0.06958  0.98435  1.0000
  O   O1        1.0  0.11253  0.11210  0.00249  1.0000
  O   O2        1.0  0.07822  0.06719  0.94071  1.0000
  N   N1        1.0  0.06251  0.04533  0.02095  1.0000
  C   C6        1.0  0.04961  0.99822  0.00981  1.0000
  C   C7        1.0  0.00457  0.98454  0.03034  1.0000
  N   N2        1.0  0.96855  0.01391  0.01471  1.0000
  C   C8        1.0  0.92451  0.00018  0.01331  1.0000
  C   C9        1.0  0.90938  0.96278  0.03696  1.0000
  C   C10       1.0  0.86472  0.94898  0.03578  1.0000
  C   C11       1.0  0.83325  0.97193  0.01011  1.0000
  C   C12       1.0  0.84802  0.00876  0.98597  1.0000
  C   C13       1.0  0.89245  0.02290  0.98797  1.0000
  O   O3        1.0  0.81926  0.03398  0.96131  1.0000
  C   C14       1.0  0.80353  0.01098  0.92244  1.0000
  C   C15       1.0  0.78271  0.96531  0.93143  1.0000
  O   O4        1.0  0.75825  0.96625  0.97210  1.0000
  C   C16       1.0  0.78491  0.95705  0.01081  1.0000
  C   C17       1.0  0.76070  0.97841  0.04980  1.0000
  O   O5        1.0  0.75288  0.95916  0.08515  1.0000
  C   C18       1.0  0.98096  0.06058  0.00535  1.0000
  C   C19       1.0  0.02296  0.07417  0.03152  1.0000
  C   C20       1.0  0.17305  0.02892  0.02332  1.0000
  C   C21       1.0  0.16611  0.05543  0.06528  1.0000
  C   C22       1.0  0.20947  0.99945  0.02126  1.0000
  H   H1        1.0  0.24652  0.91005  0.99469  1.0000
  H   H2        1.0  0.26989  0.93837  0.94805  1.0000
  H   H3        1.0  0.28468  0.95489  0.00247  1.0000
  H   H4        1.0  0.19699  0.95944  0.91572  1.0000
  H   H5        1.0  0.13353  0.01100  0.91752  1.0000
  H   H6        1.0  0.04758  0.99391  0.97359  1.0000
  H   H7        1.0  0.07558  0.97594  0.02253  1.0000
  H   H8        1.0  0.99827  0.94989  0.02056  1.0000
  H   H9        1.0  0.00645  0.98593  0.06682  1.0000
  H   H10       1.0  0.93197  0.94397  0.05813  1.0000
  H   H11       1.0  0.85478  0.92034  0.05575  1.0000
  H   H12       1.0  0.90167  0.05192  0.96837  1.0000
  H   H13       1.0  0.83022  0.00859  0.89758  1.0000
  H   H14       1.0  0.77783  0.03269  0.90818  1.0000
  H   H15       1.0  0.80767  0.93859  0.93186  1.0000
  H   H16       1.0  0.75954  0.95725  0.90438  1.0000
  H   H17       1.0  0.78371  0.92078  0.01540  1.0000
  H   H18       1.0  0.75169  0.01381  0.04531  1.0000
  H   H19       1.0  0.98658  0.06451  0.96947  1.0000
  H   H20       1.0  0.95420  0.08341  0.01530  1.0000
  H   H21       1.0  0.01682  0.07127  0.06747  1.0000
  H   H22       1.0  0.03029  0.10938  0.02534  1.0000
  H   H23       1.0  0.13169  0.05305  0.07697  1.0000
  H   H24       1.0  0.18709  0.04291  0.09243  1.0000
  H   H25       1.0  0.17504  0.09036  0.05983  1.0000
  H   H26       1.0  0.23130  0.99594  0.05008  1.0000
