data_image0
_chemical_formula_structural       C4NCOCOC2O2C5FC4SH16
_chemical_formula_sum              "C17 N1 O4 F1 S1 H16"
_cell_length_a       30
_cell_length_b       30
_cell_length_c       30
_cell_angle_alpha    90
_cell_angle_beta     90
_cell_angle_gamma    90

_space_group_name_H-M_alt    "P 1"
_space_group_IT_number       1

loop_
  _space_group_symop_operation_xyz
  'x, y, z'

loop_
  _atom_site_type_symbol
  _atom_site_label
  _atom_site_symmetry_multiplicity
  _atom_site_fract_x
  _atom_site_fract_y
  _atom_site_fract_z
  _atom_site_occupancy
  C   C1        1.0  0.10769  0.03869  0.88348  1.0000
  C   C2        1.0  0.09877  0.00951  0.92334  1.0000
  C   C3        1.0  0.07200  0.02351  0.95660  1.0000
  C   C4        1.0  0.05905  0.99950  0.99693  1.0000
  N   N1        1.0  0.01470  0.00506  0.00812  1.0000
  C   C5        1.0  0.99140  0.98931  0.04484  1.0000
  O   O1        1.0  0.00691  0.96834  0.07646  1.0000
  C   C6        1.0  0.94106  0.00097  0.04295  1.0000
  O   O2        1.0  0.93294  0.04328  0.02254  1.0000
  C   C7        1.0  0.94394  0.08025  0.05041  1.0000
  C   C8        1.0  0.97486  0.11213  0.02610  1.0000
  O   O3        1.0  0.99226  0.10634  0.98975  1.0000
  O   O4        1.0  0.98277  0.14963  0.04959  1.0000
  C   C9        1.0  0.91540  0.96476  0.01833  1.0000
  C   C10       1.0  0.90955  0.92282  0.03855  1.0000
  C   C11       1.0  0.88655  0.88869  0.01671  1.0000
  C   C12       1.0  0.86911  0.89596  0.97430  1.0000
  C   C13       1.0  0.87482  0.93723  0.95412  1.0000
  F   F1        1.0  0.85797  0.94426  0.91334  1.0000
  C   C14       1.0  0.89770  0.97145  0.97555  1.0000
  C   C15       1.0  0.08819  0.97556  0.02126  1.0000
  C   C16       1.0  0.13517  0.96919  0.01174  1.0000
  C   C17       1.0  0.15328  0.96104  0.97169  1.0000
  S   S1        1.0  0.12374  0.95687  0.92229  1.0000
  H   H1        1.0  0.09678  0.02226  0.85274  1.0000
  H   H2        1.0  0.14336  0.04600  0.88070  1.0000
  H   H3        1.0  0.09009  0.07063  0.88558  1.0000
  H   H4        1.0  0.05753  0.05671  0.95389  1.0000
  H   H5        1.0  0.99614  0.02360  0.98650  1.0000
  H   H6        1.0  0.92821  0.00222  0.07723  1.0000
  H   H7        1.0  0.96030  0.06987  0.08136  1.0000
  H   H8        1.0  0.91292  0.09780  0.05814  1.0000
  H   H9        1.0  0.00293  0.16706  0.03066  1.0000
  H   H10       1.0  0.92333  0.91634  0.07154  1.0000
  H   H11       1.0  0.88246  0.85645  0.03275  1.0000
  H   H12       1.0  0.85125  0.86980  0.95684  1.0000
  H   H13       1.0  0.90130  0.00312  0.95837  1.0000
  H   H14       1.0  0.07780  0.95907  0.05177  1.0000
  H   H15       1.0  0.15682  0.96947  0.04083  1.0000
  H   H16       1.0  0.18894  0.95528  0.96950  1.0000
