data_image0
_chemical_formula_structural       C5NCSNC17H32
_chemical_formula_sum              "C23 N2 S1 H32"
_cell_length_a       30
_cell_length_b       30
_cell_length_c       30
_cell_angle_alpha    90
_cell_angle_beta     90
_cell_angle_gamma    90

_space_group_name_H-M_alt    "P 1"
_space_group_IT_number       1

loop_
  _space_group_symop_operation_xyz
  'x, y, z'

loop_
  _atom_site_type_symbol
  _atom_site_label
  _atom_site_symmetry_multiplicity
  _atom_site_fract_x
  _atom_site_fract_y
  _atom_site_fract_z
  _atom_site_occupancy
  C   C1        1.0  0.30955  0.97600  0.02114  1.0000
  C   C2        1.0  0.26116  0.98608  0.01370  1.0000
  C   C3        1.0  0.22840  0.96132  0.03573  1.0000
  C   C4        1.0  0.18310  0.96997  0.02857  1.0000
  C   C5        1.0  0.16978  0.00372  0.99953  1.0000
  N   N1        1.0  0.12492  0.01393  0.98956  1.0000
  C   C6        1.0  0.08564  0.00699  0.01374  1.0000
  S   S1        1.0  0.08199  0.99618  0.06831  1.0000
  N   N2        1.0  0.04983  0.01098  0.98400  1.0000
  C   C7        1.0  0.00449  0.01708  0.99011  1.0000
  C   C8        1.0  0.98481  0.03353  0.02682  1.0000
  C   C9        1.0  0.93713  0.04100  0.02859  1.0000
  C   C10       1.0  0.90822  0.02150  0.00001  1.0000
  C   C11       1.0  0.92772  0.98886  0.96600  1.0000
  C   C12       1.0  0.93156  0.94089  0.98468  1.0000
  C   C13       1.0  0.88773  0.91767  0.99623  1.0000
  C   C14       1.0  0.86767  0.93108  0.04116  1.0000
  C   C15       1.0  0.82594  0.96002  0.03777  1.0000
  C   C16       1.0  0.83366  0.01042  0.03959  1.0000
  C   C17       1.0  0.85804  0.03300  0.99994  1.0000
  C   C18       1.0  0.83415  0.02215  0.95559  1.0000
  C   C19       1.0  0.85206  0.08428  0.00584  1.0000
  C   C20       1.0  0.97504  0.00487  0.95038  1.0000
  C   C21       1.0  0.97172  0.04432  0.91792  1.0000
  C   C22       1.0  0.20261  0.02760  0.97649  1.0000
  C   C23       1.0  0.24789  0.01901  0.98359  1.0000
  H   H1        1.0  0.31634  0.97159  0.05673  1.0000
  H   H2        1.0  0.33076  0.00326  0.00928  1.0000
  H   H3        1.0  0.31885  0.94553  0.00333  1.0000
  H   H4        1.0  0.23783  0.93480  0.05860  1.0000
  H   H5        1.0  0.15913  0.94880  0.04542  1.0000
  H   H6        1.0  0.12081  0.03583  0.96422  1.0000
  H   H7        1.0  0.05851  0.00202  0.95259  1.0000
  H   H8        1.0  0.00333  0.04475  0.05571  1.0000
  H   H9        1.0  0.92614  0.06397  0.05432  1.0000
  H   H10       1.0  0.90716  0.98741  0.93593  1.0000
  H   H11       1.0  0.94786  0.92038  0.95908  1.0000
  H   H12       1.0  0.95376  0.93977  0.01372  1.0000
  H   H13       1.0  0.86376  0.92080  0.96891  1.0000
  H   H14       1.0  0.89537  0.88191  0.99832  1.0000
  H   H15       1.0  0.85736  0.90003  0.05764  1.0000
  H   H16       1.0  0.89249  0.94606  0.06339  1.0000
  H   H17       1.0  0.80499  0.95196  0.06671  1.0000
  H   H18       1.0  0.80584  0.95086  0.00870  1.0000
  H   H19       1.0  0.85096  0.01837  0.07088  1.0000
  H   H20       1.0  0.80054  0.02579  0.04284  1.0000
  H   H21       1.0  0.79899  0.03205  0.95690  1.0000
  H   H22       1.0  0.84942  0.04010  0.92764  1.0000
  H   H23       1.0  0.83464  0.98665  0.94750  1.0000
  H   H24       1.0  0.86204  0.09574  0.03904  1.0000
  H   H25       1.0  0.87155  0.10281  0.98108  1.0000
  H   H26       1.0  0.81707  0.09405  0.00170  1.0000
  H   H27       1.0  0.99062  0.97721  0.93209  1.0000
  H   H28       1.0  0.95153  0.03532  0.88887  1.0000
  H   H29       1.0  0.95657  0.07371  0.93339  1.0000
  H   H30       1.0  0.00478  0.05398  0.90576  1.0000
  H   H31       1.0  0.19355  0.05366  0.95303  1.0000
  H   H32       1.0  0.27264  0.03834  0.96547  1.0000
