data_image0
_chemical_formula_structural       C2NC6NCOC2NSO2C4FC3N2H18
_chemical_formula_sum              "C18 N5 O3 S1 F1 H18"
_cell_length_a       30
_cell_length_b       30
_cell_length_c       30
_cell_angle_alpha    90
_cell_angle_beta     90
_cell_angle_gamma    90

_space_group_name_H-M_alt    "P 1"
_space_group_IT_number       1

loop_
  _space_group_symop_operation_xyz
  'x, y, z'

loop_
  _atom_site_type_symbol
  _atom_site_label
  _atom_site_symmetry_multiplicity
  _atom_site_fract_x
  _atom_site_fract_y
  _atom_site_fract_z
  _atom_site_occupancy
  C   C1        1.0  0.27584  0.00360  0.04102  1.0000
  C   C2        1.0  0.24224  0.99624  0.00581  1.0000
  N   N1        1.0  0.19862  0.99870  0.00908  1.0000
  C   C3        1.0  0.18371  0.98892  0.96665  1.0000
  C   C4        1.0  0.13639  0.98805  0.95537  1.0000
  C   C5        1.0  0.12213  0.97788  0.91213  1.0000
  C   C6        1.0  0.07677  0.97719  0.90193  1.0000
  C   C7        1.0  0.04516  0.98666  0.93481  1.0000
  C   C8        1.0  0.05860  0.99694  0.97813  1.0000
  N   N2        1.0  0.02897  0.00683  0.01329  1.0000
  C   C9        1.0  0.98291  0.00899  0.01158  1.0000
  O   O1        1.0  0.95937  0.00338  0.97861  1.0000
  C   C10       1.0  0.96306  0.02034  0.05678  1.0000
  C   C11       1.0  0.91226  0.01861  0.05633  1.0000
  N   N3        1.0  0.89454  0.05559  0.02940  1.0000
  S   S1        1.0  0.84025  0.06877  0.03422  1.0000
  O   O2        1.0  0.83095  0.07619  0.08094  1.0000
  O   O3        1.0  0.83073  0.10203  0.00069  1.0000
  C   C12       1.0  0.81325  0.01864  0.01774  1.0000
  C   C13       1.0  0.81357  0.00647  0.97267  1.0000
  C   C14       1.0  0.79235  0.96725  0.95950  1.0000
  C   C15       1.0  0.77095  0.94100  0.99122  1.0000
  F   F1        1.0  0.75061  0.90337  0.97845  1.0000
  C   C16       1.0  0.77023  0.95321  0.03600  1.0000
  C   C17       1.0  0.79140  0.99236  0.04951  1.0000
  C   C18       1.0  0.10426  0.99751  0.98807  1.0000
  N   N4        1.0  0.21672  0.98050  0.93761  1.0000
  N   N5        1.0  0.25311  0.98536  0.96305  1.0000
  H   H1        1.0  0.25969  0.01194  0.07264  1.0000
  H   H2        1.0  0.29809  0.03109  0.03205  1.0000
  H   H3        1.0  0.29594  0.97359  0.04612  1.0000
  H   H4        1.0  0.14630  0.97043  0.88612  1.0000
  H   H5        1.0  0.06593  0.96926  0.86827  1.0000
  H   H6        1.0  0.01026  0.98569  0.92536  1.0000
  H   H7        1.0  0.04348  0.01369  0.04301  1.0000
  H   H8        1.0  0.97468  0.05358  0.06655  1.0000
  H   H9        1.0  0.97556  0.99607  0.08108  1.0000
  H   H10       1.0  0.90085  0.98678  0.04260  1.0000
  H   H11       1.0  0.90026  0.02150  0.09068  1.0000
  H   H12       1.0  0.90493  0.05583  0.99683  1.0000
  H   H13       1.0  0.83006  0.02726  0.94795  1.0000
  H   H14       1.0  0.79221  0.95705  0.92477  1.0000
  H   H15       1.0  0.75305  0.93223  0.05997  1.0000
  H   H16       1.0  0.79063  0.00211  0.08443  1.0000
  H   H17       1.0  0.11549  0.00544  0.02165  1.0000
  H   H18       1.0  0.28364  0.98086  0.94930  1.0000
