data_image0
_chemical_formula_structural       C5ClC2NC4ONC3ONC11NC6NCH36
_chemical_formula_sum              "C32 Cl1 N5 O2 H36"
_cell_length_a       30
_cell_length_b       30
_cell_length_c       30
_cell_angle_alpha    90
_cell_angle_beta     90
_cell_angle_gamma    90

_space_group_name_H-M_alt    "P 1"
_space_group_IT_number       1

loop_
  _space_group_symop_operation_xyz
  'x, y, z'

loop_
  _atom_site_type_symbol
  _atom_site_label
  _atom_site_symmetry_multiplicity
  _atom_site_fract_x
  _atom_site_fract_y
  _atom_site_fract_z
  _atom_site_occupancy
  C   C1        1.0  0.87180  0.14666  0.07948  1.0000
  C   C2        1.0  0.84096  0.13626  0.04127  1.0000
  C   C3        1.0  0.80263  0.16265  0.03558  1.0000
  C   C4        1.0  0.77276  0.15397  0.00110  1.0000
  C   C5        1.0  0.78109  0.11890  0.97203  1.0000
  Cl  Cl1       1.0  0.74439  0.10819  0.92924  1.0000
  C   C6        1.0  0.81905  0.09254  0.97709  1.0000
  C   C7        1.0  0.84976  0.10087  0.01138  1.0000
  N   N1        1.0  0.88779  0.07384  0.01747  1.0000
  C   C8        1.0  0.89678  0.02941  0.00545  1.0000
  C   C9        1.0  0.94078  0.01699  0.99604  1.0000
  C   C10       1.0  0.95081  0.97347  0.98244  1.0000
  C   C11       1.0  0.99720  0.95945  0.97199  1.0000
  O   O1        1.0  0.00367  0.92970  0.94477  1.0000
  N   N2        1.0  0.03066  0.98074  0.99540  1.0000
  C   C12       1.0  0.07661  0.96552  0.99163  1.0000
  C   C13       1.0  0.10920  0.00168  0.00614  1.0000
  C   C14       1.0  0.15720  0.98584  0.00337  1.0000
  O   O2        1.0  0.16557  0.94747  0.99143  1.0000
  N   N3        1.0  0.19066  0.01622  0.01518  1.0000
  C   C15       1.0  0.18174  0.06239  0.03034  1.0000
  C   C16       1.0  0.20166  0.09707  0.99868  1.0000
  C   C17       1.0  0.19696  0.06970  0.07849  1.0000
  C   C18       1.0  0.23764  0.00197  0.01198  1.0000
  C   C19       1.0  0.24976  0.96077  0.04019  1.0000
  C   C20       1.0  0.27185  0.92807  0.00806  1.0000
  C   C21       1.0  0.28978  0.95717  0.97065  1.0000
  C   C22       1.0  0.25324  0.99173  0.96430  1.0000
  C   C23       1.0  0.91667  0.94211  0.97707  1.0000
  C   C24       1.0  0.87243  0.95367  0.98599  1.0000
  C   C25       1.0  0.83558  0.92195  0.98084  1.0000
  N   N4        1.0  0.79491  0.92694  0.99703  1.0000
  C   C26       1.0  0.77126  0.89003  0.98395  1.0000
  C   C27       1.0  0.72671  0.87853  0.99214  1.0000
  C   C28       1.0  0.71039  0.83843  0.97464  1.0000
  C   C29       1.0  0.73787  0.81042  0.94954  1.0000
  C   C30       1.0  0.78243  0.82141  0.94102  1.0000
  C   C31       1.0  0.79775  0.86155  0.95892  1.0000
  N   N5        1.0  0.83828  0.88257  0.95731  1.0000
  C   C32       1.0  0.86323  0.99728  0.00048  1.0000
  H   H1        1.0  0.90375  0.15893  0.06683  1.0000
  H   H2        1.0  0.87734  0.11691  0.09988  1.0000
  H   H3        1.0  0.85788  0.17234  0.10139  1.0000
  H   H4        1.0  0.79566  0.19007  0.05828  1.0000
  H   H5        1.0  0.74320  0.17452  0.99718  1.0000
  H   H6        1.0  0.82502  0.06590  0.95330  1.0000
  H   H7        1.0  0.91400  0.09025  0.03099  1.0000
  H   H8        1.0  0.96706  0.04182  0.99804  1.0000
  H   H9        1.0  0.02179  0.99586  0.02419  1.0000
  H   H10       1.0  0.07985  0.93576  0.01258  1.0000
  H   H11       1.0  0.08307  0.95540  0.95713  1.0000
  H   H12       1.0  0.10495  0.03077  0.98447  1.0000
  H   H13       1.0  0.10192  0.01124  0.04064  1.0000
  H   H14       1.0  0.14586  0.06840  0.03034  1.0000
  H   H15       1.0  0.23812  0.09631  0.99848  1.0000
  H   H16       1.0  0.19021  0.09132  0.96448  1.0000
  H   H17       1.0  0.19143  0.13072  0.00849  1.0000
  H   H18       1.0  0.23321  0.06768  0.08201  1.0000
  H   H19       1.0  0.18656  0.10263  0.09037  1.0000
  H   H20       1.0  0.18226  0.04457  0.10054  1.0000
  H   H21       1.0  0.25860  0.02923  0.02433  1.0000
  H   H22       1.0  0.22144  0.94556  0.05745  1.0000
  H   H23       1.0  0.27372  0.97057  0.06604  1.0000
  H   H24       1.0  0.24696  0.90480  0.99489  1.0000
  H   H25       1.0  0.29804  0.90848  0.02416  1.0000
  H   H26       1.0  0.29633  0.93817  0.94024  1.0000
  H   H27       1.0  0.32087  0.97336  0.98098  1.0000
  H   H28       1.0  0.26558  0.02164  0.94741  1.0000
  H   H29       1.0  0.22657  0.97796  0.94354  1.0000
  H   H30       1.0  0.92552  0.90865  0.96632  1.0000
  H   H31       1.0  0.70559  0.90049  0.01158  1.0000
  H   H32       1.0  0.67589  0.82912  0.98067  1.0000
  H   H33       1.0  0.72436  0.77947  0.93631  1.0000
  H   H34       1.0  0.80372  0.79970  0.92147  1.0000
  H   H35       1.0  0.86533  0.87141  0.94081  1.0000
  H   H36       1.0  0.82885  0.00589  0.00845  1.0000
