data_image0
_chemical_formula_structural       C2N2C3SCNC6ONC2ClCBrH10
_chemical_formula_sum              "C15 N4 S1 O1 Cl1 Br1 H10"
_cell_length_a       30
_cell_length_b       30
_cell_length_c       30
_cell_angle_alpha    90
_cell_angle_beta     90
_cell_angle_gamma    90

_space_group_name_H-M_alt    "P 1"
_space_group_IT_number       1

loop_
  _space_group_symop_operation_xyz
  'x, y, z'

loop_
  _atom_site_type_symbol
  _atom_site_label
  _atom_site_symmetry_multiplicity
  _atom_site_fract_x
  _atom_site_fract_y
  _atom_site_fract_z
  _atom_site_occupancy
  C   C1        1.0  0.18384  0.04921  0.96236  1.0000
  C   C2        1.0  0.15193  0.03162  0.99583  1.0000
  N   N1        1.0  0.10785  0.03646  0.98951  1.0000
  N   N2        1.0  0.08925  0.01734  0.02606  1.0000
  C   C3        1.0  0.04080  0.01692  0.03014  1.0000
  C   C4        1.0  0.01921  0.97758  0.00888  1.0000
  C   C5        1.0  0.03582  0.94390  0.98495  1.0000
  S   S1        1.0  0.99729  0.90435  0.96883  1.0000
  C   C6        1.0  0.95163  0.93668  0.98281  1.0000
  N   N3        1.0  0.91259  0.93428  0.96505  1.0000
  C   C7        1.0  0.88094  0.96702  0.97624  1.0000
  C   C8        1.0  0.85063  0.98053  0.94358  1.0000
  C   C9        1.0  0.81845  0.01297  0.95286  1.0000
  C   C10       1.0  0.81604  0.03206  0.99521  1.0000
  C   C11       1.0  0.84571  0.01867  0.02834  1.0000
  C   C12       1.0  0.87789  0.98663  0.01848  1.0000
  O   O1        1.0  0.90543  0.97203  0.05193  1.0000
  N   N4        1.0  0.94856  0.98972  0.04638  1.0000
  C   C13       1.0  0.97099  0.96971  0.01515  1.0000
  C   C14       1.0  0.12036  0.99986  0.05428  1.0000
  Cl  Cl1       1.0  0.10542  0.97248  0.10159  1.0000
  C   C15       1.0  0.16104  0.00876  0.03594  1.0000
  Br  Br1       1.0  0.21755  0.99408  0.05772  1.0000
  H   H1        1.0  0.16657  0.06572  0.93477  1.0000
  H   H2        1.0  0.20391  0.02212  0.94841  1.0000
  H   H3        1.0  0.20627  0.07357  0.97769  1.0000
  H   H4        1.0  0.02862  0.04774  0.01471  1.0000
  H   H5        1.0  0.03282  0.01888  0.06570  1.0000
  H   H6        1.0  0.07063  0.94041  0.97589  1.0000
  H   H7        1.0  0.85213  0.96558  0.91059  1.0000
  H   H8        1.0  0.79516  0.02313  0.92702  1.0000
  H   H9        1.0  0.79085  0.05709  0.00243  1.0000
  H   H10       1.0  0.84382  0.03290  0.06157  1.0000
