data_image0
_chemical_formula_structural       C3NC2NCONC4NC8OC3SH26
_chemical_formula_sum              "C21 N4 O2 S1 H26"
_cell_length_a       30
_cell_length_b       30
_cell_length_c       30
_cell_angle_alpha    90
_cell_angle_beta     90
_cell_angle_gamma    90

_space_group_name_H-M_alt    "P 1"
_space_group_IT_number       1

loop_
  _space_group_symop_operation_xyz
  'x, y, z'

loop_
  _atom_site_type_symbol
  _atom_site_label
  _atom_site_symmetry_multiplicity
  _atom_site_fract_x
  _atom_site_fract_y
  _atom_site_fract_z
  _atom_site_occupancy
  C   C1        1.0  0.71514  0.04966  0.06444  1.0000
  C   C2        1.0  0.75071  0.01793  0.05114  1.0000
  C   C3        1.0  0.75360  0.97266  0.05828  1.0000
  N   N1        1.0  0.79122  0.95218  0.04155  1.0000
  C   C4        1.0  0.81718  0.98173  0.02177  1.0000
  C   C5        1.0  0.86137  0.97003  0.99968  1.0000
  N   N2        1.0  0.89380  0.00527  0.00785  1.0000
  C   C6        1.0  0.93844  0.99625  0.00916  1.0000
  O   O1        1.0  0.95462  0.95899  0.00602  1.0000
  N   N3        1.0  0.96273  0.03474  0.01436  1.0000
  C   C7        1.0  0.01076  0.03266  0.01965  1.0000
  C   C8        1.0  0.03440  0.02348  0.97544  1.0000
  C   C9        1.0  0.08521  0.02480  0.97921  1.0000
  C   C10       1.0  0.10410  0.98748  0.00831  1.0000
  N   N4        1.0  0.15238  0.98862  0.00958  1.0000
  C   C11       1.0  0.17986  0.96713  0.97596  1.0000
  C   C12       1.0  0.22572  0.98142  0.98889  1.0000
  C   C13       1.0  0.26640  0.97068  0.97000  1.0000
  C   C14       1.0  0.30491  0.98922  0.98874  1.0000
  C   C15       1.0  0.30238  0.01803  0.02570  1.0000
  C   C16       1.0  0.26124  0.02880  0.04456  1.0000
  C   C17       1.0  0.22373  0.01000  0.02554  1.0000
  C   C18       1.0  0.17677  0.01543  0.03817  1.0000
  O   O2        1.0  0.16322  0.03952  0.06781  1.0000
  C   C19       1.0  0.86090  0.95962  0.95021  1.0000
  C   C20       1.0  0.84255  0.99128  0.91553  1.0000
  C   C21       1.0  0.81904  0.94793  0.92467  1.0000
  S   S1        1.0  0.79675  0.03565  0.02248  1.0000
  H   H1        1.0  0.69001  0.03313  0.08513  1.0000
  H   H2        1.0  0.72891  0.07741  0.08373  1.0000
  H   H3        1.0  0.69828  0.06319  0.03503  1.0000
  H   H4        1.0  0.72903  0.95265  0.07561  1.0000
  H   H5        1.0  0.87351  0.93993  0.01664  1.0000
  H   H6        1.0  0.88574  0.03558  0.99583  1.0000
  H   H7        1.0  0.94693  0.05813  0.03271  1.0000
  H   H8        1.0  0.02136  0.06493  0.03305  1.0000
  H   H9        1.0  0.01834  0.00697  0.04444  1.0000
  H   H10       1.0  0.02407  0.99116  0.96187  1.0000
  H   H11       1.0  0.02393  0.04858  0.95098  1.0000
  H   H12       1.0  0.09576  0.05732  0.99219  1.0000
  H   H13       1.0  0.09932  0.02218  0.94557  1.0000
  H   H14       1.0  0.09367  0.95464  0.99625  1.0000
  H   H15       1.0  0.09224  0.99124  0.04262  1.0000
  H   H16       1.0  0.17080  0.97964  0.94294  1.0000
  H   H17       1.0  0.17553  0.93101  0.97825  1.0000
  H   H18       1.0  0.26866  0.94856  0.94146  1.0000
  H   H19       1.0  0.33735  0.98131  0.97457  1.0000
  H   H20       1.0  0.33278  0.03204  0.03965  1.0000
  H   H21       1.0  0.25853  0.05095  0.07300  1.0000
  H   H22       1.0  0.89083  0.94126  0.94113  1.0000
  H   H23       1.0  0.82619  0.02175  0.92580  1.0000
  H   H24       1.0  0.86073  0.99437  0.88442  1.0000
  H   H25       1.0  0.78700  0.94909  0.94133  1.0000
  H   H26       1.0  0.82137  0.92179  0.89979  1.0000
