data_image0
_chemical_formula_structural       C5NC2NCOC4NC4OC3NH26
_chemical_formula_sum              "C19 N4 O2 H26"
_cell_length_a       30
_cell_length_b       30
_cell_length_c       30
_cell_angle_alpha    90
_cell_angle_beta     90
_cell_angle_gamma    90

_space_group_name_H-M_alt    "P 1"
_space_group_IT_number       1

loop_
  _space_group_symop_operation_xyz
  'x, y, z'

loop_
  _atom_site_type_symbol
  _atom_site_label
  _atom_site_symmetry_multiplicity
  _atom_site_fract_x
  _atom_site_fract_y
  _atom_site_fract_z
  _atom_site_occupancy
  C   C1        1.0  0.13489  0.07148  0.89151  1.0000
  C   C2        1.0  0.14325  0.06405  0.94031  1.0000
  C   C3        1.0  0.17910  0.08570  0.96069  1.0000
  C   C4        1.0  0.18720  0.07982  0.00606  1.0000
  C   C5        1.0  0.15757  0.05182  0.02822  1.0000
  N   N1        1.0  0.15480  0.03878  0.07208  1.0000
  C   C6        1.0  0.11918  0.01061  0.07792  1.0000
  C   C7        1.0  0.09864  0.00493  0.03729  1.0000
  N   N2        1.0  0.06167  0.97935  0.02689  1.0000
  C   C8        1.0  0.03719  0.95392  0.05649  1.0000
  O   O1        1.0  0.04455  0.95043  0.09663  1.0000
  C   C9        1.0  0.99822  0.93002  0.03391  1.0000
  C   C10       1.0  0.97863  0.89284  0.06326  1.0000
  C   C11       1.0  0.92962  0.88369  0.05279  1.0000
  C   C12       1.0  0.91813  0.89658  0.00499  1.0000
  N   N3        1.0  0.92484  0.94433  0.99547  1.0000
  C   C13       1.0  0.88295  0.96953  0.00022  1.0000
  C   C14       1.0  0.88123  0.01363  0.97443  1.0000
  C   C15       1.0  0.83474  0.03378  0.97428  1.0000
  C   C16       1.0  0.84387  0.08168  0.96158  1.0000
  O   O2        1.0  0.88672  0.09262  0.97967  1.0000
  C   C17       1.0  0.90842  0.05204  0.99314  1.0000
  C   C18       1.0  0.96179  0.96386  0.02155  1.0000
  C   C19       1.0  0.12265  0.03110  0.00585  1.0000
  N   N4        1.0  0.11465  0.03648  0.96169  1.0000
  H   H1        1.0  0.12882  0.10686  0.88504  1.0000
  H   H2        1.0  0.16364  0.06045  0.87198  1.0000
  H   H3        1.0  0.10566  0.05273  0.88030  1.0000
  H   H4        1.0  0.20073  0.10735  0.94131  1.0000
  H   H5        1.0  0.21464  0.09623  0.02284  1.0000
  H   H6        1.0  0.17582  0.04861  0.09655  1.0000
  H   H7        1.0  0.11180  0.99708  0.11059  1.0000
  H   H8        1.0  0.05331  0.98009  0.99413  1.0000
  H   H9        1.0  0.01130  0.91469  0.00328  1.0000
  H   H10       1.0  0.98149  0.90028  0.09893  1.0000
  H   H11       1.0  0.99820  0.86235  0.05790  1.0000
  H   H12       1.0  0.92236  0.84830  0.05841  1.0000
  H   H13       1.0  0.90839  0.90244  0.07595  1.0000
  H   H14       1.0  0.93951  0.87754  0.98219  1.0000
  H   H15       1.0  0.88408  0.88576  0.99715  1.0000
  H   H16       1.0  0.85564  0.94928  0.98663  1.0000
  H   H17       1.0  0.87485  0.97477  0.03551  1.0000
  H   H18       1.0  0.89123  0.00782  0.93964  1.0000
  H   H19       1.0  0.81182  0.01731  0.95117  1.0000
  H   H20       1.0  0.82002  0.03246  0.00776  1.0000
  H   H21       1.0  0.84551  0.08574  0.92534  1.0000
  H   H22       1.0  0.81877  0.10461  0.97475  1.0000
  H   H23       1.0  0.94253  0.05265  0.98032  1.0000
  H   H24       1.0  0.90956  0.05177  0.02961  1.0000
  H   H25       1.0  0.94935  0.97894  0.05252  1.0000
  H   H26       1.0  0.97652  0.99081  0.00191  1.0000
