data_image0
_chemical_formula_structural       C7NCOC5N2CNC2OC4H26
_chemical_formula_sum              "C20 N4 O2 H26"
_cell_length_a       30
_cell_length_b       30
_cell_length_c       30
_cell_angle_alpha    90
_cell_angle_beta     90
_cell_angle_gamma    90

_space_group_name_H-M_alt    "P 1"
_space_group_IT_number       1

loop_
  _space_group_symop_operation_xyz
  'x, y, z'

loop_
  _atom_site_type_symbol
  _atom_site_label
  _atom_site_symmetry_multiplicity
  _atom_site_fract_x
  _atom_site_fract_y
  _atom_site_fract_z
  _atom_site_occupancy
  C   C1        1.0  0.91061  0.12168  0.90235  1.0000
  C   C2        1.0  0.91593  0.08094  0.93090  1.0000
  C   C3        1.0  0.91530  0.03834  0.91200  1.0000
  C   C4        1.0  0.91987  0.00037  0.93866  1.0000
  C   C5        1.0  0.92489  0.00383  0.98520  1.0000
  C   C6        1.0  0.92985  0.96269  0.01609  1.0000
  C   C7        1.0  0.97129  0.96863  0.04713  1.0000
  N   N1        1.0  0.01306  0.97216  0.02303  1.0000
  C   C8        1.0  0.05325  0.97014  0.04543  1.0000
  O   O1        1.0  0.05681  0.95771  0.08425  1.0000
  C   C9        1.0  0.09315  0.98342  0.01598  1.0000
  C   C10       1.0  0.13507  0.99146  0.04551  1.0000
  C   C11       1.0  0.16792  0.01735  0.01924  1.0000
  C   C12       1.0  0.15949  0.03705  0.97876  1.0000
  C   C13       1.0  0.11589  0.03391  0.95505  1.0000
  N   N2        1.0  0.08010  0.02293  0.98766  1.0000
  N   N3        1.0  0.19622  0.05970  0.96414  1.0000
  C   C14       1.0  0.22656  0.05351  0.99521  1.0000
  N   N4        1.0  0.21100  0.02757  0.02946  1.0000
  C   C15       1.0  0.93583  0.91714  0.99146  1.0000
  C   C16       1.0  0.89088  0.89539  0.98239  1.0000
  O   O2        1.0  0.86799  0.88382  0.02268  1.0000
  C   C17       1.0  0.87669  0.91252  0.05964  1.0000
  C   C18       1.0  0.88693  0.96019  0.04539  1.0000
  C   C19       1.0  0.92411  0.04710  0.00394  1.0000
  C   C20       1.0  0.92006  0.08502  0.97717  1.0000
  H   H1        1.0  0.87714  0.13556  0.90652  1.0000
  H   H2        1.0  0.93537  0.14695  0.91146  1.0000
  H   H3        1.0  0.91542  0.11394  0.86695  1.0000
  H   H4        1.0  0.91118  0.03418  0.87606  1.0000
  H   H5        1.0  0.91883  0.96830  0.92174  1.0000
  H   H6        1.0  0.96869  0.99859  0.06791  1.0000
  H   H7        1.0  0.97398  0.94060  0.07054  1.0000
  H   H8        1.0  0.01418  0.99264  0.99592  1.0000
  H   H9        1.0  0.09928  0.95510  0.99364  1.0000
  H   H10       1.0  0.14922  0.95933  0.05592  1.0000
  H   H11       1.0  0.12641  0.01020  0.07574  1.0000
  H   H12       1.0  0.11731  0.00829  0.92920  1.0000
  H   H13       1.0  0.10797  0.06586  0.93915  1.0000
  H   H14       1.0  0.07741  0.04984  0.00842  1.0000
  H   H15       1.0  0.26012  0.06669  0.99492  1.0000
  H   H16       1.0  0.22818  0.01886  0.05716  1.0000
  H   H17       1.0  0.95546  0.92043  0.96073  1.0000
  H   H18       1.0  0.95471  0.89397  0.01289  1.0000
  H   H19       1.0  0.86905  0.91716  0.96275  1.0000
  H   H20       1.0  0.89549  0.86460  0.96324  1.0000
  H   H21       1.0  0.84712  0.91196  0.08109  1.0000
  H   H22       1.0  0.90425  0.89830  0.07905  1.0000
  H   H23       1.0  0.85812  0.97245  0.02636  1.0000
  H   H24       1.0  0.88987  0.98164  0.07487  1.0000
  H   H25       1.0  0.92645  0.05204  0.03991  1.0000
  H   H26       1.0  0.91998  0.11793  0.99261  1.0000
