data_image0
_chemical_formula_structural       C2NOC3NCOC10NCN3C4NCONH18
_chemical_formula_sum              "C22 N8 O3 H18"
_cell_length_a       30
_cell_length_b       30
_cell_length_c       30
_cell_angle_alpha    90
_cell_angle_beta     90
_cell_angle_gamma    90

_space_group_name_H-M_alt    "P 1"
_space_group_IT_number       1

loop_
  _space_group_symop_operation_xyz
  'x, y, z'

loop_
  _atom_site_type_symbol
  _atom_site_label
  _atom_site_symmetry_multiplicity
  _atom_site_fract_x
  _atom_site_fract_y
  _atom_site_fract_z
  _atom_site_occupancy
  C   C1        1.0  0.23621  0.02731  0.89837  1.0000
  C   C2        1.0  0.18856  0.01537  0.90007  1.0000
  N   N1        1.0  0.15615  0.04563  0.90471  1.0000
  O   O1        1.0  0.11741  0.01984  0.90339  1.0000
  C   C3        1.0  0.13075  0.97658  0.89876  1.0000
  C   C4        1.0  0.09537  0.94235  0.89609  1.0000
  C   C5        1.0  0.07784  0.92986  0.94214  1.0000
  N   N2        1.0  0.05401  0.96603  0.96417  1.0000
  C   C6        1.0  0.04983  0.96655  0.00997  1.0000
  O   O2        1.0  0.06732  0.94024  0.03566  1.0000
  C   C7        1.0  0.02114  0.00229  0.02743  1.0000
  C   C8        1.0  0.97693  0.99173  0.03679  1.0000
  C   C9        1.0  0.95000  0.02434  0.05537  1.0000
  C   C10       1.0  0.90321  0.01553  0.06770  1.0000
  C   C11       1.0  0.88326  0.03603  0.10450  1.0000
  C   C12       1.0  0.83929  0.02596  0.11498  1.0000
  C   C13       1.0  0.81613  0.99571  0.08840  1.0000
  C   C14       1.0  0.83813  0.97642  0.05238  1.0000
  C   C15       1.0  0.81660  0.94541  0.02186  1.0000
  C   C16       1.0  0.82588  0.93462  0.97790  1.0000
  N   N3        1.0  0.79544  0.90485  0.96089  1.0000
  C   C17       1.0  0.76842  0.89641  0.99427  1.0000
  N   N4        1.0  0.78004  0.91973  0.03178  1.0000
  N   N5        1.0  0.88103  0.98563  0.04190  1.0000
  N   N6        1.0  0.96568  0.06593  0.06351  1.0000
  C   C18       1.0  0.00883  0.07556  0.05320  1.0000
  C   C19       1.0  0.03830  0.04478  0.03560  1.0000
  C   C20       1.0  0.08568  0.05702  0.02696  1.0000
  C   C21       1.0  0.09504  0.10544  0.03480  1.0000
  N   N7        1.0  0.06708  0.13451  0.05003  1.0000
  C   C22       1.0  0.02408  0.12239  0.06103  1.0000
  O   O3        1.0  0.99785  0.14944  0.07689  1.0000
  N   N8        1.0  0.17416  0.97207  0.89643  1.0000
  H   H1        1.0  0.25130  0.01400  0.86787  1.0000
  H   H2        1.0  0.24102  0.06346  0.89856  1.0000
  H   H3        1.0  0.25403  0.01326  0.92702  1.0000
  H   H4        1.0  0.10923  0.91245  0.88003  1.0000
  H   H5        1.0  0.06795  0.95432  0.87476  1.0000
  H   H6        1.0  0.10522  0.91848  0.96374  1.0000
  H   H7        1.0  0.05405  0.90240  0.93918  1.0000
  H   H8        1.0  0.03197  0.98430  0.94596  1.0000
  H   H9        1.0  0.96401  0.95847  0.03058  1.0000
  H   H10       1.0  0.90190  0.05952  0.12481  1.0000
  H   H11       1.0  0.82317  0.04174  0.14334  1.0000
  H   H12       1.0  0.78156  0.98849  0.09576  1.0000
  H   H13       1.0  0.85262  0.94769  0.95748  1.0000
  H   H14       1.0  0.74009  0.87409  0.99330  1.0000
  H   H15       1.0  0.76458  0.91788  0.06180  1.0000
  H   H16       1.0  0.10808  0.03781  0.04863  1.0000
  H   H17       1.0  0.09448  0.05009  0.99231  1.0000
  H   H18       1.0  0.12911  0.11689  0.02691  1.0000
