data_image0
_chemical_formula_structural       C8NSO2CFC5FC4FC2H20
_chemical_formula_sum              "C20 N1 S1 O2 F3 H20"
_cell_length_a       30
_cell_length_b       30
_cell_length_c       30
_cell_angle_alpha    90
_cell_angle_beta     90
_cell_angle_gamma    90

_space_group_name_H-M_alt    "P 1"
_space_group_IT_number       1

loop_
  _space_group_symop_operation_xyz
  'x, y, z'

loop_
  _atom_site_type_symbol
  _atom_site_label
  _atom_site_symmetry_multiplicity
  _atom_site_fract_x
  _atom_site_fract_y
  _atom_site_fract_z
  _atom_site_occupancy
  C   C1        1.0  0.80627  0.98911  0.97073  1.0000
  C   C2        1.0  0.83684  0.01685  0.99916  1.0000
  C   C3        1.0  0.81954  0.03774  0.03732  1.0000
  C   C4        1.0  0.84668  0.06367  0.06479  1.0000
  C   C5        1.0  0.89152  0.06913  0.05454  1.0000
  C   C6        1.0  0.90917  0.04883  0.01667  1.0000
  C   C7        1.0  0.88217  0.02295  0.98831  1.0000
  C   C8        1.0  0.90366  0.00129  0.94815  1.0000
  N   N1        1.0  0.92603  0.95975  0.96133  1.0000
  S   S1        1.0  0.95735  0.93491  0.92145  1.0000
  O   O1        1.0  0.92895  0.93320  0.88235  1.0000
  O   O2        1.0  0.97245  0.89367  0.94164  1.0000
  C   C9        1.0  0.00278  0.96964  0.91090  1.0000
  F   F1        1.0  0.01013  0.98396  0.86867  1.0000
  C   C10       1.0  0.03057  0.98438  0.94282  1.0000
  C   C11       1.0  0.03057  0.97450  0.99009  1.0000
  C   C12       1.0  0.05610  0.99345  0.02199  1.0000
  C   C13       1.0  0.05104  0.97778  0.06962  1.0000
  C   C14       1.0  0.08953  0.03125  0.01626  1.0000
  F   F2        1.0  0.08097  0.05536  0.97852  1.0000
  C   C15       1.0  0.13750  0.01521  0.01739  1.0000
  C   C16       1.0  0.16275  0.01786  0.05678  1.0000
  C   C17       1.0  0.20671  0.00272  0.05764  1.0000
  C   C18       1.0  0.22554  0.98493  0.01925  1.0000
  F   F3        1.0  0.26773  0.97047  0.02016  1.0000
  C   C19       1.0  0.20125  0.98198  0.97996  1.0000
  C   C20       1.0  0.15729  0.99710  0.97899  1.0000
  H   H1        1.0  0.77362  0.98463  0.98654  1.0000
  H   H2        1.0  0.80097  0.00534  0.93847  1.0000
  H   H3        1.0  0.82040  0.95589  0.96552  1.0000
  H   H4        1.0  0.78459  0.03379  0.04609  1.0000
  H   H5        1.0  0.83278  0.07948  0.09426  1.0000
  H   H6        1.0  0.91276  0.08913  0.07603  1.0000
  H   H7        1.0  0.94443  0.05313  0.00926  1.0000
  H   H8        1.0  0.87872  0.99464  0.92236  1.0000
  H   H9        1.0  0.92772  0.02476  0.93380  1.0000
  H   H10       1.0  0.90477  0.93696  0.97491  1.0000
  H   H11       1.0  0.05670  0.00648  0.93096  1.0000
  H   H12       1.0  0.00779  0.94825  0.00073  1.0000
  H   H13       1.0  0.04252  0.00584  0.09137  1.0000
  H   H14       1.0  0.02469  0.95279  0.07337  1.0000
  H   H15       1.0  0.08203  0.96272  0.08154  1.0000
  H   H16       1.0  0.08455  0.05520  0.04343  1.0000
  H   H17       1.0  0.14837  0.03178  0.08703  1.0000
  H   H18       1.0  0.22639  0.00469  0.08791  1.0000
  H   H19       1.0  0.21664  0.96800  0.95036  1.0000
  H   H20       1.0  0.13845  0.99481  0.94810  1.0000
