data_image0
_chemical_formula_structural       C3NC2NC4NC17NH38
_chemical_formula_sum              "C26 N4 H38"
_cell_length_a       30
_cell_length_b       30
_cell_length_c       30
_cell_angle_alpha    90
_cell_angle_beta     90
_cell_angle_gamma    90

_space_group_name_H-M_alt    "P 1"
_space_group_IT_number       1

loop_
  _space_group_symop_operation_xyz
  'x, y, z'

loop_
  _atom_site_type_symbol
  _atom_site_label
  _atom_site_symmetry_multiplicity
  _atom_site_fract_x
  _atom_site_fract_y
  _atom_site_fract_z
  _atom_site_occupancy
  C   C1        1.0  0.89120  0.17062  0.04379  1.0000
  C   C2        1.0  0.89054  0.12219  0.03455  1.0000
  C   C3        1.0  0.91702  0.08904  0.05230  1.0000
  N   N1        1.0  0.90215  0.05058  0.03298  1.0000
  C   C4        1.0  0.91669  0.00582  0.04359  1.0000
  C   C5        1.0  0.89553  0.96880  0.01443  1.0000
  N   N2        1.0  0.92071  0.96064  0.97286  1.0000
  C   C6        1.0  0.94998  0.92090  0.97271  1.0000
  C   C7        1.0  0.99089  0.92558  0.00362  1.0000
  C   C8        1.0  0.02431  0.96025  0.98629  1.0000
  C   C9        1.0  0.06213  0.96806  0.01979  1.0000
  N   N3        1.0  0.10039  0.99083  0.00012  1.0000
  C   C10       1.0  0.09084  0.03389  0.97888  1.0000
  C   C11       1.0  0.13756  0.05293  0.97497  1.0000
  C   C12       1.0  0.14202  0.10223  0.96382  1.0000
  C   C13       1.0  0.18499  0.12230  0.98351  1.0000
  C   C14       1.0  0.22168  0.08763  0.99173  1.0000
  C   C15       1.0  0.20670  0.04861  0.02150  1.0000
  C   C16       1.0  0.15626  0.04306  0.02096  1.0000
  C   C17       1.0  0.13739  0.99719  0.03197  1.0000
  C   C18       1.0  0.92383  0.87754  0.97786  1.0000
  C   C19       1.0  0.92195  0.85367  0.01814  1.0000
  C   C20       1.0  0.89726  0.81434  0.02141  1.0000
  C   C21       1.0  0.87414  0.79821  0.98454  1.0000
  C   C22       1.0  0.87560  0.82139  0.94433  1.0000
  C   C23       1.0  0.90018  0.86075  0.94103  1.0000
  C   C24       1.0  0.84670  0.98100  0.00338  1.0000
  C   C25       1.0  0.84299  0.02612  0.97991  1.0000
  C   C26       1.0  0.86744  0.06106  0.00520  1.0000
  N   N4        1.0  0.85988  0.10426  0.00530  1.0000
  H   H1        1.0  0.87654  0.18940  0.01615  1.0000
  H   H2        1.0  0.87204  0.17785  0.07399  1.0000
  H   H3        1.0  0.92533  0.18255  0.04870  1.0000
  H   H4        1.0  0.94386  0.08972  0.07641  1.0000
  H   H5        1.0  0.95307  0.00554  0.04227  1.0000
  H   H6        1.0  0.90696  0.00046  0.07841  1.0000
  H   H7        1.0  0.89443  0.93853  0.03468  1.0000
  H   H8        1.0  0.89894  0.95669  0.94702  1.0000
  H   H9        1.0  0.96398  0.91945  0.93884  1.0000
  H   H10       1.0  0.00828  0.89344  0.00558  1.0000
  H   H11       1.0  0.98077  0.93366  0.03776  1.0000
  H   H12       1.0  0.03812  0.94827  0.95461  1.0000
  H   H13       1.0  0.00733  0.99183  0.97939  1.0000
  H   H14       1.0  0.04906  0.98671  0.04847  1.0000
  H   H15       1.0  0.07349  0.93565  0.03241  1.0000
  H   H16       1.0  0.07530  0.02991  0.94612  1.0000
  H   H17       1.0  0.06954  0.05493  0.99982  1.0000
  H   H18       1.0  0.15612  0.03374  0.94982  1.0000
  H   H19       1.0  0.11331  0.12119  0.97618  1.0000
  H   H20       1.0  0.14200  0.10621  0.92749  1.0000
  H   H21       1.0  0.19746  0.14855  0.96137  1.0000
  H   H22       1.0  0.17695  0.13863  0.01525  1.0000
  H   H23       1.0  0.25098  0.10372  0.00658  1.0000
  H   H24       1.0  0.23251  0.07447  0.95935  1.0000
  H   H25       1.0  0.22350  0.01808  0.01045  1.0000
  H   H26       1.0  0.21767  0.05448  0.05588  1.0000
  H   H27       1.0  0.14198  0.06691  0.04485  1.0000
  H   H28       1.0  0.12629  0.99671  0.06673  1.0000
  H   H29       1.0  0.16195  0.97060  0.02742  1.0000
  H   H30       1.0  0.93958  0.86540  0.04758  1.0000
  H   H31       1.0  0.89635  0.79609  0.05269  1.0000
  H   H32       1.0  0.85510  0.76750  0.98711  1.0000
  H   H33       1.0  0.85782  0.80876  0.91542  1.0000
  H   H34       1.0  0.90105  0.87821  0.90923  1.0000
  H   H35       1.0  0.82772  0.98226  0.03462  1.0000
  H   H36       1.0  0.83118  0.95490  0.98302  1.0000
  H   H37       1.0  0.85672  0.02407  0.94610  1.0000
  H   H38       1.0  0.80779  0.03541  0.97672  1.0000
