data_image0
_chemical_formula_structural       C2NC4NCONC6OC2SH19
_chemical_formula_sum              "C15 N3 O2 S1 H19"
_cell_length_a       30
_cell_length_b       30
_cell_length_c       30
_cell_angle_alpha    90
_cell_angle_beta     90
_cell_angle_gamma    90

_space_group_name_H-M_alt    "P 1"
_space_group_IT_number       1

loop_
  _space_group_symop_operation_xyz
  'x, y, z'

loop_
  _atom_site_type_symbol
  _atom_site_label
  _atom_site_symmetry_multiplicity
  _atom_site_fract_x
  _atom_site_fract_y
  _atom_site_fract_z
  _atom_site_occupancy
  C   C1        1.0  0.27000  0.01864  0.04330  1.0000
  C   C2        1.0  0.22171  0.01185  0.03423  1.0000
  N   N1        1.0  0.19715  0.98094  0.05322  1.0000
  C   C3        1.0  0.15379  0.98348  0.03759  1.0000
  C   C4        1.0  0.11814  0.95584  0.05038  1.0000
  C   C5        1.0  0.07574  0.96224  0.03175  1.0000
  C   C6        1.0  0.06820  0.99571  0.00043  1.0000
  N   N2        1.0  0.02633  0.00393  0.98079  1.0000
  C   C7        1.0  0.98798  0.97898  0.98468  1.0000
  O   O1        1.0  0.98368  0.94332  0.00399  1.0000
  N   N3        1.0  0.95318  0.99953  0.96249  1.0000
  C   C8        1.0  0.90817  0.98060  0.96498  1.0000
  C   C9        1.0  0.88164  0.99657  0.92452  1.0000
  C   C10       1.0  0.88635  0.99307  0.01005  1.0000
  C   C11       1.0  0.84044  0.97261  0.01801  1.0000
  C   C12       1.0  0.80886  0.01160  0.01412  1.0000
  C   C13       1.0  0.83740  0.05003  0.02960  1.0000
  O   O2        1.0  0.88108  0.04101  0.01265  1.0000
  C   C14       1.0  0.10340  0.02368  0.98748  1.0000
  C   C15       1.0  0.14579  0.01696  0.00636  1.0000
  S   S1        1.0  0.19462  0.04563  0.99686  1.0000
  H   H1        1.0  0.28190  0.99437  0.06781  1.0000
  H   H2        1.0  0.27612  0.05202  0.05668  1.0000
  H   H3        1.0  0.28964  0.01439  0.01285  1.0000
  H   H4        1.0  0.12366  0.92963  0.07471  1.0000
  H   H5        1.0  0.04917  0.94027  0.04280  1.0000
  H   H6        1.0  0.02480  0.02849  0.95786  1.0000
  H   H7        1.0  0.95347  0.03315  0.96505  1.0000
  H   H8        1.0  0.91121  0.94420  0.96312  1.0000
  H   H9        1.0  0.84853  0.98134  0.92343  1.0000
  H   H10       1.0  0.89889  0.98754  0.89360  1.0000
  H   H11       1.0  0.87766  0.03286  0.92444  1.0000
  H   H12       1.0  0.90858  0.98334  0.03740  1.0000
  H   H13       1.0  0.83231  0.94512  0.99547  1.0000
  H   H14       1.0  0.83902  0.95922  0.05201  1.0000
  H   H15       1.0  0.77842  0.00763  0.03375  1.0000
  H   H16       1.0  0.79936  0.01640  0.97919  1.0000
  H   H17       1.0  0.83931  0.05149  0.06604  1.0000
  H   H18       1.0  0.82573  0.08220  0.01709  1.0000
  H   H19       1.0  0.09854  0.05013  0.96329  1.0000
