data_image0
_chemical_formula_structural       C2NOC4NC2NC2NCNH13
_chemical_formula_sum              "C11 N5 O1 H13"
_cell_length_a       30
_cell_length_b       30
_cell_length_c       30
_cell_angle_alpha    90
_cell_angle_beta     90
_cell_angle_gamma    90

_space_group_name_H-M_alt    "P 1"
_space_group_IT_number       1

loop_
  _space_group_symop_operation_xyz
  'x, y, z'

loop_
  _atom_site_type_symbol
  _atom_site_label
  _atom_site_symmetry_multiplicity
  _atom_site_fract_x
  _atom_site_fract_y
  _atom_site_fract_z
  _atom_site_occupancy
  C   C1        1.0  0.02660  0.92956  0.94168  1.0000
  C   C2        1.0  0.04010  0.94601  0.98707  1.0000
  N   N1        1.0  0.08128  0.94240  0.99992  1.0000
  O   O1        1.0  0.08838  0.95488  0.04497  1.0000
  C   C3        1.0  0.08733  0.00189  0.05303  1.0000
  C   C4        1.0  0.10720  0.02968  0.01690  1.0000
  C   C5        1.0  0.08876  0.04773  0.98046  1.0000
  C   C6        1.0  0.04387  0.04563  0.95927  1.0000
  N   N2        1.0  0.00549  0.02824  0.96737  1.0000
  C   C7        1.0  0.99413  0.00407  0.00417  1.0000
  C   C8        1.0  0.95917  0.02527  0.03377  1.0000
  N   N3        1.0  0.91457  0.01558  0.01801  1.0000
  C   C9        1.0  0.88605  0.98430  0.03487  1.0000
  C   C10       1.0  0.84779  0.98864  0.00998  1.0000
  N   N4        1.0  0.85238  0.02176  0.97882  1.0000
  C   C11       1.0  0.89296  0.03728  0.98433  1.0000
  N   N5        1.0  0.00807  0.96437  0.01363  1.0000
  H   H1        1.0  0.03824  0.89528  0.93735  1.0000
  H   H2        1.0  0.99039  0.93037  0.93769  1.0000
  H   H3        1.0  0.04207  0.95045  0.91612  1.0000
  H   H4        1.0  0.10710  0.00731  0.08330  1.0000
  H   H5        1.0  0.05391  0.01284  0.06231  1.0000
  H   H6        1.0  0.14270  0.03572  0.02175  1.0000
  H   H7        1.0  0.11149  0.06690  0.95945  1.0000
  H   H8        1.0  0.04414  0.06398  0.92724  1.0000
  H   H9        1.0  0.96228  0.01266  0.06789  1.0000
  H   H10       1.0  0.96329  0.06154  0.03437  1.0000
  H   H11       1.0  0.89492  0.96220  0.06193  1.0000
  H   H12       1.0  0.81721  0.96971  0.01285  1.0000
  H   H13       1.0  0.90810  0.06377  0.96506  1.0000
