data_image0
_chemical_formula_structural       C8NC3ONC2NC5ONOC2H20
_chemical_formula_sum              "C20 N4 O3 H20"
_cell_length_a       30
_cell_length_b       30
_cell_length_c       30
_cell_angle_alpha    90
_cell_angle_beta     90
_cell_angle_gamma    90

_space_group_name_H-M_alt    "P 1"
_space_group_IT_number       1

loop_
  _space_group_symop_operation_xyz
  'x, y, z'

loop_
  _atom_site_type_symbol
  _atom_site_label
  _atom_site_symmetry_multiplicity
  _atom_site_fract_x
  _atom_site_fract_y
  _atom_site_fract_z
  _atom_site_occupancy
  C   C1        1.0  0.83668  0.06272  0.90712  1.0000
  C   C2        1.0  0.85373  0.03202  0.94276  1.0000
  C   C3        1.0  0.86850  0.04893  0.98362  1.0000
  C   C4        1.0  0.88537  0.02035  0.01633  1.0000
  C   C5        1.0  0.88832  0.97424  0.00875  1.0000
  C   C6        1.0  0.90700  0.94418  0.04521  1.0000
  C   C7        1.0  0.86975  0.91951  0.07078  1.0000
  C   C8        1.0  0.84852  0.88353  0.04515  1.0000
  N   N1        1.0  0.83233  0.85470  0.02498  1.0000
  C   C9        1.0  0.94427  0.91228  0.02892  1.0000
  C   C10       1.0  0.98537  0.93616  0.01017  1.0000
  C   C11       1.0  0.01225  0.96040  0.04548  1.0000
  O   O1        1.0  0.00479  0.95782  0.08559  1.0000
  N   N2        1.0  0.04649  0.98541  0.02813  1.0000
  C   C12       1.0  0.07507  0.01130  0.05726  1.0000
  C   C13       1.0  0.10929  0.03520  0.03091  1.0000
  N   N3        1.0  0.15046  0.02376  0.02116  1.0000
  C   C14       1.0  0.16460  0.05904  0.99561  1.0000
  C   C15       1.0  0.21254  0.06163  0.97554  1.0000
  C   C16       1.0  0.22919  0.09574  0.94935  1.0000
  C   C17       1.0  0.27372  0.08416  0.93868  1.0000
  C   C18       1.0  0.28158  0.04385  0.95900  1.0000
  O   O2        1.0  0.24482  0.02987  0.98133  1.0000
  N   N4        1.0  0.13370  0.09081  0.98917  1.0000
  O   O3        1.0  0.09685  0.07508  0.01281  1.0000
  C   C19       1.0  0.87374  0.95755  0.96757  1.0000
  C   C20       1.0  0.85682  0.98616  0.93489  1.0000
  H   H1        1.0  0.81150  0.04607  0.88653  1.0000
  H   H2        1.0  0.82092  0.09227  0.92172  1.0000
  H   H3        1.0  0.86421  0.07343  0.88572  1.0000
  H   H4        1.0  0.86689  0.08456  0.99033  1.0000
  H   H5        1.0  0.89638  0.03461  0.04786  1.0000
  H   H6        1.0  0.92229  0.96628  0.07009  1.0000
  H   H7        1.0  0.84420  0.94337  0.08160  1.0000
  H   H8        1.0  0.88400  0.90510  0.10129  1.0000
  H   H9        1.0  0.93154  0.88984  0.00301  1.0000
  H   H10       1.0  0.95461  0.89090  0.05678  1.0000
  H   H11       1.0  0.97600  0.95975  0.98394  1.0000
  H   H12       1.0  0.00749  0.91121  0.99509  1.0000
  H   H13       1.0  0.04962  0.98861  0.99457  1.0000
  H   H14       1.0  0.05431  0.03477  0.07604  1.0000
  H   H15       1.0  0.09078  0.98858  0.08115  1.0000
  H   H16       1.0  0.21116  0.12534  0.93919  1.0000
  H   H17       1.0  0.29715  0.10287  0.91869  1.0000
  H   H18       1.0  0.31007  0.02176  0.96063  1.0000
  H   H19       1.0  0.87520  0.92206  0.96008  1.0000
  H   H20       1.0  0.84591  0.97223  0.90319  1.0000
