data_image0
_chemical_formula_structural       C6ONC12FCH20
_chemical_formula_sum              "C19 O1 N1 F1 H20"
_cell_length_a       30
_cell_length_b       30
_cell_length_c       30
_cell_angle_alpha    90
_cell_angle_beta     90
_cell_angle_gamma    90

_space_group_name_H-M_alt    "P 1"
_space_group_IT_number       1

loop_
  _space_group_symop_operation_xyz
  'x, y, z'

loop_
  _atom_site_type_symbol
  _atom_site_label
  _atom_site_symmetry_multiplicity
  _atom_site_fract_x
  _atom_site_fract_y
  _atom_site_fract_z
  _atom_site_occupancy
  C   C1        1.0  0.21727  0.03955  0.99989  1.0000
  C   C2        1.0  0.17167  0.02212  0.98917  1.0000
  C   C3        1.0  0.16655  0.97952  0.97073  1.0000
  C   C4        1.0  0.12406  0.96273  0.96143  1.0000
  C   C5        1.0  0.08594  0.98829  0.97041  1.0000
  C   C6        1.0  0.04154  0.96881  0.95990  1.0000
  O   O1        1.0  0.03841  0.92908  0.95067  1.0000
  N   N1        1.0  0.00529  0.99694  0.96101  1.0000
  C   C7        1.0  0.96011  0.98083  0.95435  1.0000
  C   C8        1.0  0.93936  0.96008  0.99679  1.0000
  C   C9        1.0  0.89853  0.93139  0.98482  1.0000
  C   C10       1.0  0.85907  0.96024  0.97097  1.0000
  C   C11       1.0  0.84470  0.99077  0.00910  1.0000
  C   C12       1.0  0.88285  0.01161  0.03446  1.0000
  C   C13       1.0  0.87326  0.04578  0.06502  1.0000
  C   C14       1.0  0.90683  0.06446  0.09115  1.0000
  C   C15       1.0  0.95036  0.04892  0.08742  1.0000
  C   C16       1.0  0.96031  0.01489  0.05738  1.0000
  C   C17       1.0  0.92695  0.99609  0.03038  1.0000
  C   C18       1.0  0.09132  0.03045  0.98933  1.0000
  F   F1        1.0  0.05599  0.05601  0.99932  1.0000
  C   C19       1.0  0.13364  0.04727  0.99885  1.0000
  H   H1        1.0  0.22944  0.02450  0.03083  1.0000
  H   H2        1.0  0.21694  0.07586  0.00394  1.0000
  H   H3        1.0  0.24057  0.03187  0.97283  1.0000
  H   H4        1.0  0.19562  0.95901  0.96345  1.0000
  H   H5        1.0  0.12080  0.92956  0.94702  1.0000
  H   H6        1.0  0.00906  0.02868  0.97206  1.0000
  H   H7        1.0  0.94062  0.00935  0.94253  1.0000
  H   H8        1.0  0.96111  0.95609  0.92749  1.0000
  H   H9        1.0  0.96376  0.93771  0.01244  1.0000
  H   H10       1.0  0.90687  0.90800  0.95799  1.0000
  H   H11       1.0  0.88897  0.91109  0.01375  1.0000
  H   H12       1.0  0.86780  0.98023  0.94162  1.0000
  H   H13       1.0  0.83095  0.93910  0.96107  1.0000
  H   H14       1.0  0.82303  0.01694  0.99558  1.0000
  H   H15       1.0  0.82491  0.97133  0.03294  1.0000
  H   H16       1.0  0.83922  0.05775  0.06885  1.0000
  H   H17       1.0  0.89891  0.09084  0.11470  1.0000
  H   H18       1.0  0.97656  0.06314  0.10800  1.0000
  H   H19       1.0  0.99447  0.00295  0.05512  1.0000
  H   H20       1.0  0.13638  0.08015  0.01384  1.0000
