data_image0
_chemical_formula_structural       C4OCOC2NCOC9O2SH25
_chemical_formula_sum              "C17 O5 N1 S1 H25"
_cell_length_a       30
_cell_length_b       30
_cell_length_c       30
_cell_angle_alpha    90
_cell_angle_beta     90
_cell_angle_gamma    90

_space_group_name_H-M_alt    "P 1"
_space_group_IT_number       1

loop_
  _space_group_symop_operation_xyz
  'x, y, z'

loop_
  _atom_site_type_symbol
  _atom_site_label
  _atom_site_symmetry_multiplicity
  _atom_site_fract_x
  _atom_site_fract_y
  _atom_site_fract_z
  _atom_site_occupancy
  C   C1        1.0  0.90798  0.84956  0.96887  1.0000
  C   C2        1.0  0.90578  0.89618  0.98609  1.0000
  C   C3        1.0  0.93979  0.91858  0.00446  1.0000
  C   C4        1.0  0.92955  0.96526  0.01908  1.0000
  O   O1        1.0  0.95531  0.99522  0.99231  1.0000
  C   C5        1.0  0.99676  0.00453  0.00815  1.0000
  O   O2        1.0  0.01138  0.99249  0.04438  1.0000
  C   C6        1.0  0.02239  0.03380  0.97508  1.0000
  C   C7        1.0  0.00658  0.08186  0.97886  1.0000
  N   N1        1.0  0.07005  0.03077  0.98529  1.0000
  C   C8        1.0  0.09523  0.99668  0.96734  1.0000
  O   O3        1.0  0.08040  0.97176  0.93836  1.0000
  C   C9        1.0  0.14253  0.99175  0.98680  1.0000
  C   C10       1.0  0.16814  0.95609  0.96020  1.0000
  C   C11       1.0  0.16795  0.03614  0.98344  1.0000
  C   C12       1.0  0.13956  0.97687  0.03571  1.0000
  C   C13       1.0  0.88047  0.97265  0.00943  1.0000
  C   C14       1.0  0.85446  0.00799  0.01899  1.0000
  C   C15       1.0  0.86428  0.05130  0.04307  1.0000
  C   C16       1.0  0.90121  0.04982  0.07816  1.0000
  C   C17       1.0  0.87028  0.08869  0.00892  1.0000
  O   O4        1.0  0.84972  0.09310  0.97391  1.0000
  O   O5        1.0  0.89949  0.12063  0.02131  1.0000
  S   S1        1.0  0.85621  0.92626  0.98250  1.0000
  H   H1        1.0  0.89840  0.84831  0.93364  1.0000
  H   H2        1.0  0.88554  0.82782  0.98780  1.0000
  H   H3        1.0  0.94173  0.83578  0.97162  1.0000
  H   H4        1.0  0.97280  0.90466  0.00875  1.0000
  H   H5        1.0  0.93609  0.96871  0.05484  1.0000
  H   H6        1.0  0.01666  0.02111  0.94130  1.0000
  H   H7        1.0  0.97131  0.08467  0.96976  1.0000
  H   H8        1.0  0.01027  0.09451  0.01293  1.0000
  H   H9        1.0  0.02578  0.10368  0.95672  1.0000
  H   H10       1.0  0.07909  0.04154  0.01598  1.0000
  H   H11       1.0  0.20168  0.95090  0.97367  1.0000
  H   H12       1.0  0.15075  0.92400  0.96091  1.0000
  H   H13       1.0  0.17157  0.96582  0.92511  1.0000
  H   H14       1.0  0.15342  0.06175  0.00497  1.0000
  H   H15       1.0  0.16736  0.04907  0.94929  1.0000
  H   H16       1.0  0.20286  0.03216  0.99332  1.0000
  H   H17       1.0  0.12377  0.00218  0.05680  1.0000
  H   H18       1.0  0.11985  0.94623  0.03889  1.0000
  H   H19       1.0  0.17278  0.97036  0.04958  1.0000
  H   H20       1.0  0.81979  0.00645  0.00777  1.0000
  H   H21       1.0  0.83371  0.05987  0.06136  1.0000
  H   H22       1.0  0.89756  0.02083  0.10012  1.0000
  H   H23       1.0  0.89972  0.07960  0.09933  1.0000
  H   H24       1.0  0.93445  0.04943  0.06327  1.0000
  H   H25       1.0  0.89756  0.14258  0.99712  1.0000
