data_image0
_chemical_formula_structural       C2NC2NC3ONC9SH27
_chemical_formula_sum              "C16 N3 O1 S1 H27"
_cell_length_a       30
_cell_length_b       30
_cell_length_c       30
_cell_angle_alpha    90
_cell_angle_beta     90
_cell_angle_gamma    90

_space_group_name_H-M_alt    "P 1"
_space_group_IT_number       1

loop_
  _space_group_symop_operation_xyz
  'x, y, z'

loop_
  _atom_site_type_symbol
  _atom_site_label
  _atom_site_symmetry_multiplicity
  _atom_site_fract_x
  _atom_site_fract_y
  _atom_site_fract_z
  _atom_site_occupancy
  C   C1        1.0  0.77803  0.97792  0.05152  1.0000
  C   C2        1.0  0.81661  0.97533  0.01951  1.0000
  N   N1        1.0  0.82680  0.00990  0.99669  1.0000
  C   C3        1.0  0.86267  0.01023  0.96447  1.0000
  C   C4        1.0  0.84678  0.03770  0.92455  1.0000
  N   N2        1.0  0.87605  0.96680  0.94844  1.0000
  C   C5        1.0  0.89040  0.93748  0.98418  1.0000
  C   C6        1.0  0.92935  0.95313  0.01356  1.0000
  C   C7        1.0  0.97129  0.96157  0.98678  1.0000
  O   O1        1.0  0.97315  0.95855  0.94606  1.0000
  N   N3        1.0  0.00721  0.97349  0.01297  1.0000
  C   C8        1.0  0.04955  0.98698  0.99337  1.0000
  C   C9        1.0  0.04701  0.03513  0.97600  1.0000
  C   C10       1.0  0.09207  0.05898  0.97591  1.0000
  C   C11       1.0  0.13068  0.02663  0.96895  1.0000
  C   C12       1.0  0.13350  0.99103  0.00594  1.0000
  C   C13       1.0  0.16692  0.99971  0.04282  1.0000
  C   C14       1.0  0.21397  0.01467  0.03331  1.0000
  C   C15       1.0  0.18204  0.04563  0.05659  1.0000
  C   C16       1.0  0.08745  0.98158  0.02699  1.0000
  S   S1        1.0  0.84311  0.92366  0.01877  1.0000
  H   H1        1.0  0.76071  0.00983  0.04794  1.0000
  H   H2        1.0  0.79019  0.97506  0.08580  1.0000
  H   H3        1.0  0.75422  0.95110  0.04488  1.0000
  H   H4        1.0  0.89118  0.02809  0.97877  1.0000
  H   H5        1.0  0.87327  0.04149  0.89968  1.0000
  H   H6        1.0  0.83664  0.07116  0.93517  1.0000
  H   H7        1.0  0.81793  0.02223  0.90829  1.0000
  H   H8        1.0  0.90231  0.97059  0.92693  1.0000
  H   H9        1.0  0.90050  0.90604  0.96853  1.0000
  H   H10       1.0  0.93739  0.92720  0.03811  1.0000
  H   H11       1.0  0.92119  0.98358  0.03204  1.0000
  H   H12       1.0  0.00144  0.98178  0.04518  1.0000
  H   H13       1.0  0.05596  0.96471  0.96503  1.0000
  H   H14       1.0  0.02345  0.05496  0.99574  1.0000
  H   H15       1.0  0.03343  0.03459  0.94203  1.0000
  H   H16       1.0  0.09222  0.08454  0.94982  1.0000
  H   H17       1.0  0.09644  0.07657  0.00765  1.0000
  H   H18       1.0  0.16177  0.04525  0.96508  1.0000
  H   H19       1.0  0.12543  0.00963  0.93694  1.0000
  H   H20       1.0  0.14463  0.96014  0.98969  1.0000
  H   H21       1.0  0.16379  0.97482  0.06903  1.0000
  H   H22       1.0  0.24060  0.00006  0.05294  1.0000
  H   H23       1.0  0.22374  0.02235  0.99941  1.0000
  H   H24       1.0  0.18721  0.05177  0.09186  1.0000
  H   H25       1.0  0.17072  0.07472  0.03849  1.0000
  H   H26       1.0  0.08169  0.00392  0.05546  1.0000
  H   H27       1.0  0.08732  0.94772  0.04090  1.0000
