data_image0
_chemical_formula_structural       C5NCOC10NCOC3O2H26
_chemical_formula_sum              "C20 N2 O4 H26"
_cell_length_a       30
_cell_length_b       30
_cell_length_c       30
_cell_angle_alpha    90
_cell_angle_beta     90
_cell_angle_gamma    90

_space_group_name_H-M_alt    "P 1"
_space_group_IT_number       1

loop_
  _space_group_symop_operation_xyz
  'x, y, z'

loop_
  _atom_site_type_symbol
  _atom_site_label
  _atom_site_symmetry_multiplicity
  _atom_site_fract_x
  _atom_site_fract_y
  _atom_site_fract_z
  _atom_site_occupancy
  C   C1        1.0  0.27795  0.94756  0.96733  1.0000
  C   C2        1.0  0.22923  0.95399  0.97727  1.0000
  C   C3        1.0  0.20569  0.91917  0.99774  1.0000
  C   C4        1.0  0.16039  0.92354  0.00762  1.0000
  C   C5        1.0  0.13734  0.96265  0.99711  1.0000
  N   N1        1.0  0.09166  0.96407  0.00818  1.0000
  C   C6        1.0  0.06149  0.99798  0.99954  1.0000
  O   O1        1.0  0.06935  0.03317  0.98035  1.0000
  C   C7        1.0  0.01559  0.98714  0.01834  1.0000
  C   C8        1.0  0.97972  0.01934  0.00154  1.0000
  C   C9        1.0  0.93394  0.01182  0.02332  1.0000
  C   C10       1.0  0.90307  0.05204  0.01417  1.0000
  C   C11       1.0  0.85290  0.04252  0.02118  1.0000
  C   C12       1.0  0.82817  0.04224  0.97596  1.0000
  C   C13       1.0  0.78464  0.01571  0.97605  1.0000
  C   C14       1.0  0.76463  0.01188  0.02240  1.0000
  C   C15       1.0  0.79620  0.98826  0.05469  1.0000
  C   C16       1.0  0.84566  0.99897  0.04700  1.0000
  N   N2        1.0  0.86865  0.96348  0.02353  1.0000
  C   C17       1.0  0.91162  0.96846  0.00871  1.0000
  O   O2        1.0  0.92976  0.93896  0.98707  1.0000
  C   C18       1.0  0.16043  0.99745  0.97666  1.0000
  C   C19       1.0  0.20616  0.99350  0.96661  1.0000
  C   C20       1.0  0.22925  0.03124  0.94402  1.0000
  O   O3        1.0  0.26281  0.02931  0.92136  1.0000
  O   O4        1.0  0.20925  0.07059  0.95197  1.0000
  H   H1        1.0  0.29067  0.91684  0.98244  1.0000
  H   H2        1.0  0.29764  0.97502  0.98111  1.0000
  H   H3        1.0  0.28336  0.94513  0.93134  1.0000
  H   H4        1.0  0.22254  0.88817  0.00621  1.0000
  H   H5        1.0  0.14348  0.89570  0.02349  1.0000
  H   H6        1.0  0.07921  0.93646  0.02309  1.0000
  H   H7        1.0  0.01791  0.98901  0.05476  1.0000
  H   H8        1.0  0.00731  0.95280  0.00925  1.0000
  H   H9        1.0  0.97698  0.01646  0.96516  1.0000
  H   H10       1.0  0.99055  0.05360  0.00846  1.0000
  H   H11       1.0  0.93886  0.00921  0.05953  1.0000
  H   H12       1.0  0.91301  0.07904  0.03681  1.0000
  H   H13       1.0  0.90887  0.06510  0.98049  1.0000
  H   H14       1.0  0.83892  0.07001  0.04094  1.0000
  H   H15       1.0  0.82116  0.07691  0.96657  1.0000
  H   H16       1.0  0.84947  0.02887  0.94939  1.0000
  H   H17       1.0  0.76076  0.03133  0.95323  1.0000
  H   H18       1.0  0.79092  0.98215  0.96295  1.0000
  H   H19       1.0  0.75702  0.04534  0.03506  1.0000
  H   H20       1.0  0.73288  0.99387  0.02102  1.0000
  H   H21       1.0  0.79056  0.95216  0.05316  1.0000
  H   H22       1.0  0.78691  0.99840  0.08859  1.0000
  H   H23       1.0  0.86182  0.00133  0.07974  1.0000
  H   H24       1.0  0.85288  0.93514  0.01406  1.0000
  H   H25       1.0  0.14343  0.02819  0.96792  1.0000
  H   H26       1.0  0.22732  0.09223  0.93553  1.0000
