data_image0
_chemical_formula_structural       C2NCNCONC14FCNH23
_chemical_formula_sum              "C19 N4 O1 F1 H23"
_cell_length_a       30
_cell_length_b       30
_cell_length_c       30
_cell_angle_alpha    90
_cell_angle_beta     90
_cell_angle_gamma    90

_space_group_name_H-M_alt    "P 1"
_space_group_IT_number       1

loop_
  _space_group_symop_operation_xyz
  'x, y, z'

loop_
  _atom_site_type_symbol
  _atom_site_label
  _atom_site_symmetry_multiplicity
  _atom_site_fract_x
  _atom_site_fract_y
  _atom_site_fract_z
  _atom_site_occupancy
  C   C1        1.0  0.09193  0.90095  0.07208  1.0000
  C   C2        1.0  0.09174  0.94205  0.04383  1.0000
  N   N1        1.0  0.05210  0.95870  0.03183  1.0000
  C   C3        1.0  0.05200  0.99522  0.00637  1.0000
  N   N2        1.0  0.01170  0.01461  0.99274  1.0000
  C   C4        1.0  0.97020  0.00375  0.00902  1.0000
  O   O1        1.0  0.96150  0.97895  0.04016  1.0000
  N   N3        1.0  0.93749  0.02635  0.98538  1.0000
  C   C5        1.0  0.89045  0.01917  0.99564  1.0000
  C   C6        1.0  0.86288  0.05860  0.97849  1.0000
  C   C7        1.0  0.81311  0.05189  0.98646  1.0000
  C   C8        1.0  0.79667  0.00801  0.96659  1.0000
  C   C9        1.0  0.82362  0.96749  0.98242  1.0000
  C   C10       1.0  0.81293  0.95545  0.03084  1.0000
  C   C11       1.0  0.87378  0.97511  0.97547  1.0000
  C   C12       1.0  0.09092  0.01475  0.99153  1.0000
  C   C13       1.0  0.13058  0.99522  0.00465  1.0000
  C   C14       1.0  0.17473  0.01258  0.99132  1.0000
  C   C15       1.0  0.21173  0.00851  0.02003  1.0000
  C   C16       1.0  0.25384  0.02480  0.00827  1.0000
  C   C17       1.0  0.25990  0.04548  0.96724  1.0000
  C   C18       1.0  0.22392  0.04946  0.93845  1.0000
  F   F1        1.0  0.22962  0.06911  0.89876  1.0000
  C   C19       1.0  0.18190  0.03333  0.94994  1.0000
  N   N4        1.0  0.13122  0.95883  0.03105  1.0000
  H   H1        1.0  0.06289  0.90040  0.09413  1.0000
  H   H2        1.0  0.12197  0.89971  0.09274  1.0000
  H   H3        1.0  0.09109  0.87139  0.05075  1.0000
  H   H4        1.0  0.01321  0.04250  0.97421  1.0000
  H   H5        1.0  0.94469  0.03134  0.95292  1.0000
  H   H6        1.0  0.88734  0.01765  0.03204  1.0000
  H   H7        1.0  0.87379  0.08945  0.99482  1.0000
  H   H8        1.0  0.86883  0.06330  0.94268  1.0000
  H   H9        1.0  0.80621  0.05274  0.02233  1.0000
  H   H10       1.0  0.79457  0.07965  0.97160  1.0000
  H   H11       1.0  0.79902  0.01011  0.93013  1.0000
  H   H12       1.0  0.76126  0.00351  0.97442  1.0000
  H   H13       1.0  0.81373  0.93880  0.96196  1.0000
  H   H14       1.0  0.82148  0.98220  0.05409  1.0000
  H   H15       1.0  0.77732  0.94832  0.03469  1.0000
  H   H16       1.0  0.83131  0.92558  0.04097  1.0000
  H   H17       1.0  0.89260  0.94691  0.98916  1.0000
  H   H18       1.0  0.88069  0.97516  0.93950  1.0000
  H   H19       1.0  0.09045  0.04442  0.97110  1.0000
  H   H20       1.0  0.20774  0.99233  0.05232  1.0000
  H   H21       1.0  0.28168  0.02116  0.03118  1.0000
  H   H22       1.0  0.29230  0.05826  0.95747  1.0000
  H   H23       1.0  0.15533  0.03677  0.92562  1.0000
