data_image0
_chemical_formula_structural       C7OC4ONC7H31
_chemical_formula_sum              "C18 O2 N1 H31"
_cell_length_a       30
_cell_length_b       30
_cell_length_c       30
_cell_angle_alpha    90
_cell_angle_beta     90
_cell_angle_gamma    90

_space_group_name_H-M_alt    "P 1"
_space_group_IT_number       1

loop_
  _space_group_symop_operation_xyz
  'x, y, z'

loop_
  _atom_site_type_symbol
  _atom_site_label
  _atom_site_symmetry_multiplicity
  _atom_site_fract_x
  _atom_site_fract_y
  _atom_site_fract_z
  _atom_site_occupancy
  C   C1        1.0  0.91015  0.92539  0.06082  1.0000
  C   C2        1.0  0.92318  0.94599  0.01607  1.0000
  C   C3        1.0  0.94525  0.91093  0.98605  1.0000
  C   C4        1.0  0.97249  0.93079  0.94784  1.0000
  C   C5        1.0  0.95962  0.97890  0.93767  1.0000
  C   C6        1.0  0.96322  0.01207  0.97847  1.0000
  C   C7        1.0  0.92576  0.04754  0.96795  1.0000
  O   O1        1.0  0.90654  0.06673  0.00684  1.0000
  C   C8        1.0  0.91038  0.11379  0.00918  1.0000
  C   C9        1.0  0.95872  0.12857  0.01237  1.0000
  C   C10       1.0  0.98734  0.09511  0.03761  1.0000
  C   C11       1.0  0.02040  0.07243  0.00714  1.0000
  O   O2        1.0  0.05799  0.08940  0.00515  1.0000
  N   N1        1.0  0.00933  0.03488  0.98162  1.0000
  C   C12       1.0  0.04887  0.01318  0.96138  1.0000
  C   C13       1.0  0.07316  0.98032  0.99232  1.0000
  C   C14       1.0  0.10044  0.00125  0.02986  1.0000
  C   C15       1.0  0.13104  0.96362  0.04506  1.0000
  C   C16       1.0  0.13816  0.93411  0.00416  1.0000
  C   C17       1.0  0.10879  0.95355  0.96747  1.0000
  C   C18       1.0  0.95400  0.98625  0.02261  1.0000
  H   H1        1.0  0.89257  0.94970  0.08161  1.0000
  H   H2        1.0  0.93953  0.91398  0.07925  1.0000
  H   H3        1.0  0.88801  0.89679  0.05593  1.0000
  H   H4        1.0  0.89235  0.95744  0.00001  1.0000
  H   H5        1.0  0.91917  0.88924  0.97235  1.0000
  H   H6        1.0  0.96713  0.88908  0.00562  1.0000
  H   H7        1.0  0.96770  0.91033  0.91792  1.0000
  H   H8        1.0  0.00792  0.92825  0.95560  1.0000
  H   H9        1.0  0.92488  0.97673  0.92624  1.0000
  H   H10       1.0  0.97743  0.99162  0.90846  1.0000
  H   H11       1.0  0.93817  0.07265  0.94442  1.0000
  H   H12       1.0  0.89727  0.03174  0.95147  1.0000
  H   H13       1.0  0.89261  0.12422  0.03933  1.0000
  H   H14       1.0  0.89343  0.12941  0.98084  1.0000
  H   H15       1.0  0.95979  0.16120  0.02883  1.0000
  H   H16       1.0  0.97198  0.13400  0.97872  1.0000
  H   H17       1.0  0.96876  0.07107  0.05751  1.0000
  H   H18       1.0  0.00725  0.11351  0.06226  1.0000
  H   H19       1.0  0.03968  0.99662  0.93039  1.0000
  H   H20       1.0  0.07249  0.03896  0.95058  1.0000
  H   H21       1.0  0.04942  0.95693  0.00718  1.0000
  H   H22       1.0  0.07968  0.01345  0.05724  1.0000
  H   H23       1.0  0.12067  0.02904  0.01744  1.0000
  H   H24       1.0  0.11499  0.94425  0.07157  1.0000
  H   H25       1.0  0.16251  0.97642  0.05836  1.0000
  H   H26       1.0  0.12828  0.89976  0.01171  1.0000
  H   H27       1.0  0.17318  0.93341  0.99393  1.0000
  H   H28       1.0  0.09438  0.92749  0.94639  1.0000
  H   H29       1.0  0.12879  0.97542  0.94603  1.0000
  H   H30       1.0  0.98543  0.97444  0.03702  1.0000
  H   H31       1.0  0.93973  0.00803  0.04811  1.0000
