data_image0
_chemical_formula_structural       C10NCONC5OC6H28
_chemical_formula_sum              "C22 N2 O2 H28"
_cell_length_a       30
_cell_length_b       30
_cell_length_c       30
_cell_angle_alpha    90
_cell_angle_beta     90
_cell_angle_gamma    90

_space_group_name_H-M_alt    "P 1"
_space_group_IT_number       1

loop_
  _space_group_symop_operation_xyz
  'x, y, z'

loop_
  _atom_site_type_symbol
  _atom_site_label
  _atom_site_symmetry_multiplicity
  _atom_site_fract_x
  _atom_site_fract_y
  _atom_site_fract_z
  _atom_site_occupancy
  C   C1        1.0  0.12377  0.99909  0.11970  1.0000
  C   C2        1.0  0.13944  0.01881  0.07565  1.0000
  C   C3        1.0  0.14265  0.07015  0.07694  1.0000
  C   C4        1.0  0.13894  0.08137  0.02847  1.0000
  C   C5        1.0  0.14979  0.12107  0.00759  1.0000
  C   C6        1.0  0.14247  0.12463  0.96174  1.0000
  C   C7        1.0  0.12421  0.08893  0.93762  1.0000
  C   C8        1.0  0.11301  0.04916  0.95902  1.0000
  C   C9        1.0  0.12067  0.04575  0.00446  1.0000
  C   C10       1.0  0.11014  0.00700  0.03462  1.0000
  N   N1        1.0  0.06285  0.00583  0.04451  1.0000
  C   C11       1.0  0.03481  0.98008  0.01913  1.0000
  O   O1        1.0  0.04686  0.95429  0.98999  1.0000
  N   N2        1.0  0.99119  0.98718  0.03130  1.0000
  C   C12       1.0  0.95606  0.96058  0.01094  1.0000
  C   C13       1.0  0.90863  0.97997  0.01740  1.0000
  C   C14       1.0  0.90558  0.02651  0.99577  1.0000
  C   C15       1.0  0.89873  0.98513  0.06780  1.0000
  C   C16       1.0  0.87261  0.94807  0.99721  1.0000
  O   O2        1.0  0.87439  0.90562  0.01900  1.0000
  C   C17       1.0  0.87341  0.94123  0.94704  1.0000
  C   C18       1.0  0.84502  0.96637  0.91960  1.0000
  C   C19       1.0  0.84519  0.96050  0.87343  1.0000
  C   C20       1.0  0.87372  0.92943  0.85404  1.0000
  C   C21       1.0  0.90201  0.90414  0.88077  1.0000
  C   C22       1.0  0.90182  0.90992  0.92694  1.0000
  H   H1        1.0  0.09131  0.01240  0.12978  1.0000
  H   H2        1.0  0.14758  0.00683  0.14627  1.0000
  H   H3        1.0  0.12100  0.96278  0.11733  1.0000
  H   H4        1.0  0.17318  0.00596  0.06898  1.0000
  H   H5        1.0  0.11496  0.08519  0.09539  1.0000
  H   H6        1.0  0.17442  0.08103  0.09117  1.0000
  H   H7        1.0  0.16365  0.14883  0.02618  1.0000
  H   H8        1.0  0.15085  0.15540  0.94451  1.0000
  H   H9        1.0  0.11854  0.09233  0.90198  1.0000
  H   H10       1.0  0.09840  0.02161  0.94057  1.0000
  H   H11       1.0  0.12113  0.97537  0.02000  1.0000
  H   H12       1.0  0.04924  0.03535  0.05319  1.0000
  H   H13       1.0  0.98809  0.99313  0.06426  1.0000
  H   H14       1.0  0.96392  0.95784  0.97539  1.0000
  H   H15       1.0  0.95869  0.92706  0.02529  1.0000
  H   H16       1.0  0.92745  0.05050  0.01252  1.0000
  H   H17       1.0  0.91541  0.02570  0.96062  1.0000
  H   H18       1.0  0.87156  0.03967  0.99770  1.0000
  H   H19       1.0  0.91984  0.01057  0.08329  1.0000
  H   H20       1.0  0.86408  0.99532  0.07334  1.0000
  H   H21       1.0  0.90415  0.95381  0.08578  1.0000
  H   H22       1.0  0.83961  0.96147  0.00571  1.0000
  H   H23       1.0  0.85662  0.88511  0.00120  1.0000
  H   H24       1.0  0.82251  0.99089  0.93402  1.0000
  H   H25       1.0  0.82313  0.98029  0.85258  1.0000
  H   H26       1.0  0.87398  0.92496  0.81809  1.0000
  H   H27       1.0  0.92442  0.87996  0.86570  1.0000
  H   H28       1.0  0.92432  0.88985  0.94717  1.0000
