data_image0
_chemical_formula_structural       C9NCOC4NC4FC2N2OH15
_chemical_formula_sum              "C20 N4 O2 F1 H15"
_cell_length_a       30
_cell_length_b       30
_cell_length_c       30
_cell_angle_alpha    90
_cell_angle_beta     90
_cell_angle_gamma    90

_space_group_name_H-M_alt    "P 1"
_space_group_IT_number       1

loop_
  _space_group_symop_operation_xyz
  'x, y, z'

loop_
  _atom_site_type_symbol
  _atom_site_label
  _atom_site_symmetry_multiplicity
  _atom_site_fract_x
  _atom_site_fract_y
  _atom_site_fract_z
  _atom_site_occupancy
  C   C1        1.0  0.14331  0.06996  0.07736  1.0000
  C   C2        1.0  0.13124  0.06911  0.02770  1.0000
  C   C3        1.0  0.16907  0.04826  0.99985  1.0000
  C   C4        1.0  0.15167  0.00197  0.99299  1.0000
  C   C5        1.0  0.17504  0.96540  0.97707  1.0000
  C   C6        1.0  0.15240  0.92507  0.97268  1.0000
  C   C7        1.0  0.10724  0.92194  0.98428  1.0000
  C   C8        1.0  0.08395  0.95918  0.00003  1.0000
  C   C9        1.0  0.10631  0.99940  0.00353  1.0000
  N   N1        1.0  0.09145  0.04121  0.01902  1.0000
  C   C10       1.0  0.04884  0.05662  0.02899  1.0000
  O   O1        1.0  0.04401  0.08967  0.05299  1.0000
  C   C11       1.0  0.01038  0.03526  0.00948  1.0000
  C   C12       1.0  0.96715  0.03147  0.02441  1.0000
  C   C13       1.0  0.94459  0.00973  0.98956  1.0000
  C   C14       1.0  0.89452  0.99653  0.98927  1.0000
  N   N2        1.0  0.86619  0.00356  0.02207  1.0000
  C   C15       1.0  0.82628  0.98664  0.00739  1.0000
  C   C16       1.0  0.83044  0.96887  0.96470  1.0000
  C   C17       1.0  0.79504  0.94941  0.94160  1.0000
  C   C18       1.0  0.75410  0.94846  0.96373  1.0000
  F   F1        1.0  0.71893  0.93016  0.94316  1.0000
  C   C19       1.0  0.74862  0.96588  0.00642  1.0000
  C   C20       1.0  0.78472  0.98524  0.02885  1.0000
  N   N3        1.0  0.87432  0.97566  0.95401  1.0000
  N   N4        1.0  0.97152  0.00119  0.95506  1.0000
  O   O2        1.0  0.01271  0.01829  0.96731  1.0000
  H   H1        1.0  0.11660  0.08471  0.09733  1.0000
  H   H2        1.0  0.14926  0.03632  0.09029  1.0000
  H   H3        1.0  0.17348  0.08975  0.08286  1.0000
  H   H4        1.0  0.12457  0.10334  0.01671  1.0000
  H   H5        1.0  0.17192  0.06492  0.96747  1.0000
  H   H6        1.0  0.20133  0.04883  0.01682  1.0000
  H   H7        1.0  0.21005  0.96791  0.96830  1.0000
  H   H8        1.0  0.16987  0.89577  0.96042  1.0000
  H   H9        1.0  0.09013  0.89012  0.98118  1.0000
  H   H10       1.0  0.04945  0.95510  0.00982  1.0000
  H   H11       1.0  0.95388  0.04297  0.05585  1.0000
  H   H12       1.0  0.79854  0.93568  0.90840  1.0000
  H   H13       1.0  0.71608  0.96435  0.02221  1.0000
  H   H14       1.0  0.78094  0.99895  0.06209  1.0000
  H   H15       1.0  0.88984  0.96718  0.92536  1.0000
