data_image0
_chemical_formula_structural       C7SCO2C3NH21
_chemical_formula_sum              "C11 S1 O2 N1 H21"
_cell_length_a       30
_cell_length_b       30
_cell_length_c       30
_cell_angle_alpha    90
_cell_angle_beta     90
_cell_angle_gamma    90

_space_group_name_H-M_alt    "P 1"
_space_group_IT_number       1

loop_
  _space_group_symop_operation_xyz
  'x, y, z'

loop_
  _atom_site_type_symbol
  _atom_site_label
  _atom_site_symmetry_multiplicity
  _atom_site_fract_x
  _atom_site_fract_y
  _atom_site_fract_z
  _atom_site_occupancy
  C   C1        1.0  0.89714  0.05661  0.00300  1.0000
  C   C2        1.0  0.93617  0.02373  0.00240  1.0000
  C   C3        1.0  0.92021  0.97714  0.01588  1.0000
  C   C4        1.0  0.95752  0.94226  0.01212  1.0000
  C   C5        1.0  0.99249  0.94748  0.04935  1.0000
  C   C6        1.0  0.04067  0.95744  0.03615  1.0000
  C   C7        1.0  0.04768  0.00307  0.01402  1.0000
  S   S1        1.0  0.10529  0.02024  0.02275  1.0000
  C   C8        1.0  0.10870  0.07478  0.99977  1.0000
  O   O1        1.0  0.11214  0.02506  0.07043  1.0000
  O   O2        1.0  0.13413  0.99146  0.99671  1.0000
  C   C9        1.0  0.03697  0.00292  0.96412  1.0000
  C   C10       1.0  0.98990  0.98949  0.94934  1.0000
  C   C11       1.0  0.97554  0.94300  0.96457  1.0000
  N   N1        1.0  0.95645  0.02427  0.95788  1.0000
  H   H1        1.0  0.87099  0.04697  0.97938  1.0000
  H   H2        1.0  0.88215  0.05814  0.03627  1.0000
  H   H3        1.0  0.90830  0.09030  0.99436  1.0000
  H   H4        1.0  0.96021  0.03592  0.02686  1.0000
  H   H5        1.0  0.89239  0.96698  0.99433  1.0000
  H   H6        1.0  0.90695  0.97774  0.04996  1.0000
  H   H7        1.0  0.94176  0.90959  0.01726  1.0000
  H   H8        1.0  0.99310  0.91592  0.06795  1.0000
  H   H9        1.0  0.98160  0.97234  0.07388  1.0000
  H   H10       1.0  0.06019  0.95579  0.06705  1.0000
  H   H11       1.0  0.05413  0.93073  0.01512  1.0000
  H   H12       1.0  0.02852  0.02860  0.03160  1.0000
  H   H13       1.0  0.14093  0.08888  0.00917  1.0000
  H   H14       1.0  0.10643  0.07294  0.96355  1.0000
  H   H15       1.0  0.08187  0.09508  0.01362  1.0000
  H   H16       1.0  0.06060  0.98062  0.94719  1.0000
  H   H17       1.0  0.04374  0.03604  0.95020  1.0000
  H   H18       1.0  0.99229  0.98763  0.91281  1.0000
  H   H19       1.0  0.00260  0.91883  0.96032  1.0000
  H   H20       1.0  0.94878  0.93159  0.94227  1.0000
  H   H21       1.0  0.93147  0.02044  0.93500  1.0000
