data_image0
_chemical_formula_structural       C8O2CONH15
_chemical_formula_sum              "C9 O3 N1 H15"
_cell_length_a       30
_cell_length_b       30
_cell_length_c       30
_cell_angle_alpha    90
_cell_angle_beta     90
_cell_angle_gamma    90

_space_group_name_H-M_alt    "P 1"
_space_group_IT_number       1

loop_
  _space_group_symop_operation_xyz
  'x, y, z'

loop_
  _atom_site_type_symbol
  _atom_site_label
  _atom_site_symmetry_multiplicity
  _atom_site_fract_x
  _atom_site_fract_y
  _atom_site_fract_z
  _atom_site_occupancy
  C   C1        1.0  0.88752  0.99179  0.99485  1.0000
  C   C2        1.0  0.93782  0.99240  0.98581  1.0000
  C   C3        1.0  0.96173  0.96616  0.02356  1.0000
  C   C4        1.0  0.00999  0.97899  0.02202  1.0000
  C   C5        1.0  0.02968  0.96884  0.97646  1.0000
  C   C6        1.0  0.05888  0.00820  0.96900  1.0000
  C   C7        1.0  0.09431  0.00925  0.00658  1.0000
  C   C8        1.0  0.07831  0.99398  0.05356  1.0000
  O   O1        1.0  0.04127  0.96283  0.05348  1.0000
  O   O2        1.0  0.03306  0.04980  0.96635  1.0000
  C   C9        1.0  0.98983  0.06402  0.96786  1.0000
  O   O3        1.0  0.98241  0.10375  0.96013  1.0000
  N   N1        1.0  0.95272  0.03937  0.97906  1.0000
  H   H1        1.0  0.87940  0.01003  0.02543  1.0000
  H   H2        1.0  0.86925  0.00760  0.96746  1.0000
  H   H3        1.0  0.87528  0.95757  0.99825  1.0000
  H   H4        1.0  0.94245  0.97572  0.95371  1.0000
  H   H5        1.0  0.94805  0.97476  0.05636  1.0000
  H   H6        1.0  0.95703  0.93015  0.01959  1.0000
  H   H7        1.0  0.00814  0.01447  0.03044  1.0000
  H   H8        1.0  0.04913  0.93785  0.97683  1.0000
  H   H9        1.0  0.00639  0.96606  0.94879  1.0000
  H   H10       1.0  0.07606  0.00560  0.93688  1.0000
  H   H11       1.0  0.12080  0.98595  0.99680  1.0000
  H   H12       1.0  0.10972  0.04226  0.00916  1.0000
  H   H13       1.0  0.10586  0.97839  0.07173  1.0000
  H   H14       1.0  0.06809  0.02322  0.07302  1.0000
  H   H15       1.0  0.92683  0.06100  0.97685  1.0000
