data_image0
_chemical_formula_structural       C6NCOCNCOC4ONCNH16
_chemical_formula_sum              "C14 N4 O3 H16"
_cell_length_a       30
_cell_length_b       30
_cell_length_c       30
_cell_angle_alpha    90
_cell_angle_beta     90
_cell_angle_gamma    90

_space_group_name_H-M_alt    "P 1"
_space_group_IT_number       1

loop_
  _space_group_symop_operation_xyz
  'x, y, z'

loop_
  _atom_site_type_symbol
  _atom_site_label
  _atom_site_symmetry_multiplicity
  _atom_site_fract_x
  _atom_site_fract_y
  _atom_site_fract_z
  _atom_site_occupancy
  C   C1        1.0  0.92763  0.01343  0.08204  1.0000
  C   C2        1.0  0.93168  0.97821  0.04518  1.0000
  C   C3        1.0  0.88603  0.96371  0.03080  1.0000
  C   C4        1.0  0.86610  0.97624  0.99160  1.0000
  C   C5        1.0  0.88768  0.00436  0.95780  1.0000
  C   C6        1.0  0.93830  0.99563  0.96075  1.0000
  N   N1        1.0  0.95778  0.99624  0.00639  1.0000
  C   C7        1.0  0.00385  0.99934  0.01262  1.0000
  O   O1        1.0  0.02201  0.99175  0.04880  1.0000
  C   C8        1.0  0.03224  0.01318  0.97244  1.0000
  N   N2        1.0  0.07881  0.01432  0.98515  1.0000
  C   C9        1.0  0.11154  0.02628  0.95526  1.0000
  O   O2        1.0  0.10196  0.03571  0.91652  1.0000
  C   C10       1.0  0.15653  0.02666  0.97302  1.0000
  C   C11       1.0  0.17444  0.01591  0.01422  1.0000
  C   C12       1.0  0.22106  0.02297  0.01128  1.0000
  C   C13       1.0  0.22901  0.03756  0.96863  1.0000
  O   O3        1.0  0.19039  0.03991  0.94528  1.0000
  N   N3        1.0  0.82504  0.95698  0.99143  1.0000
  C   C14       1.0  0.82177  0.93318  0.03030  1.0000
  N   N4        1.0  0.85811  0.93657  0.05470  1.0000
  H   H1        1.0  0.96020  0.02378  0.09476  1.0000
  H   H2        1.0  0.91075  0.04342  0.06972  1.0000
  H   H3        1.0  0.90833  0.00063  0.11029  1.0000
  H   H4        1.0  0.94959  0.94905  0.05810  1.0000
  H   H5        1.0  0.87558  0.99698  0.92418  1.0000
  H   H6        1.0  0.88077  0.03951  0.96498  1.0000
  H   H7        1.0  0.94587  0.96253  0.94708  1.0000
  H   H8        1.0  0.95540  0.02004  0.93974  1.0000
  H   H9        1.0  0.02267  0.04658  0.96133  1.0000
  H   H10       1.0  0.02850  0.98904  0.94536  1.0000
  H   H11       1.0  0.08591  0.00750  0.01747  1.0000
  H   H12       1.0  0.15632  0.00419  0.04308  1.0000
  H   H13       1.0  0.24577  0.01799  0.03703  1.0000
  H   H14       1.0  0.25869  0.04715  0.95058  1.0000
  H   H15       1.0  0.80136  0.95922  0.96755  1.0000
  H   H16       1.0  0.79232  0.91421  0.03887  1.0000
