data_image0
_chemical_formula_structural       C4NCOCSCN4C5OC2H23
_chemical_formula_sum              "C14 N5 O2 S1 H23"
_cell_length_a       30
_cell_length_b       30
_cell_length_c       30
_cell_angle_alpha    90
_cell_angle_beta     90
_cell_angle_gamma    90

_space_group_name_H-M_alt    "P 1"
_space_group_IT_number       1

loop_
  _space_group_symop_operation_xyz
  'x, y, z'

loop_
  _atom_site_type_symbol
  _atom_site_label
  _atom_site_symmetry_multiplicity
  _atom_site_fract_x
  _atom_site_fract_y
  _atom_site_fract_z
  _atom_site_occupancy
  C   C1        1.0  0.86278  0.00480  0.94509  1.0000
  C   C2        1.0  0.86084  0.97655  0.98760  1.0000
  C   C3        1.0  0.85496  0.00591  0.02919  1.0000
  C   C4        1.0  0.89944  0.02363  0.04640  1.0000
  N   N1        1.0  0.93214  0.98830  0.05465  1.0000
  C   C5        1.0  0.97394  0.99548  0.07320  1.0000
  O   O1        1.0  0.00080  0.96490  0.07906  1.0000
  C   C6        1.0  0.98733  0.04319  0.08508  1.0000
  S   S1        1.0  0.03959  0.05774  0.05674  1.0000
  C   C7        1.0  0.02379  0.04549  0.00262  1.0000
  N   N2        1.0  0.99287  0.06607  0.97939  1.0000
  N   N3        1.0  0.99022  0.04360  0.93947  1.0000
  N   N4        1.0  0.01846  0.00956  0.93842  1.0000
  N   N5        1.0  0.03990  0.01079  0.97798  1.0000
  C   C8        1.0  0.07456  0.97882  0.98770  1.0000
  C   C9        1.0  0.11535  0.98501  0.95807  1.0000
  C   C10       1.0  0.13730  0.03050  0.96171  1.0000
  C   C11       1.0  0.18373  0.02042  0.94522  1.0000
  C   C12       1.0  0.19210  0.97444  0.96425  1.0000
  O   O2        1.0  0.14948  0.95347  0.97014  1.0000
  C   C13       1.0  0.92084  0.94376  0.03827  1.0000
  C   C14       1.0  0.90225  0.94629  0.99095  1.0000
  H   H1        1.0  0.86347  0.98352  0.91537  1.0000
  H   H2        1.0  0.83334  0.02648  0.94264  1.0000
  H   H3        1.0  0.89247  0.02613  0.94469  1.0000
  H   H4        1.0  0.83127  0.95534  0.98489  1.0000
  H   H5        1.0  0.83926  0.98590  0.05550  1.0000
  H   H6        1.0  0.83222  0.03377  0.02253  1.0000
  H   H7        1.0  0.89437  0.04199  0.07759  1.0000
  H   H8        1.0  0.91374  0.04671  0.02196  1.0000
  H   H9        1.0  0.96234  0.06814  0.07658  1.0000
  H   H10       1.0  0.99271  0.04452  0.12134  1.0000
  H   H11       1.0  0.08391  0.98067  0.02306  1.0000
  H   H12       1.0  0.06044  0.94537  0.98290  1.0000
  H   H13       1.0  0.10665  0.97840  0.92319  1.0000
  H   H14       1.0  0.13872  0.04161  0.99658  1.0000
  H   H15       1.0  0.12038  0.05618  0.94200  1.0000
  H   H16       1.0  0.18390  0.01893  0.90866  1.0000
  H   H17       1.0  0.20856  0.04501  0.95570  1.0000
  H   H18       1.0  0.21270  0.95408  0.94228  1.0000
  H   H19       1.0  0.20810  0.97620  0.99685  1.0000
  H   H20       1.0  0.89626  0.92939  0.06118  1.0000
  H   H21       1.0  0.95002  0.92182  0.03866  1.0000
  H   H22       1.0  0.92870  0.95845  0.96883  1.0000
  H   H23       1.0  0.89379  0.91267  0.97925  1.0000
