data_image0
_chemical_formula_structural       C5NC4ONC3OC6OCH28
_chemical_formula_sum              "C19 N2 O3 H28"
_cell_length_a       30
_cell_length_b       30
_cell_length_c       30
_cell_angle_alpha    90
_cell_angle_beta     90
_cell_angle_gamma    90

_space_group_name_H-M_alt    "P 1"
_space_group_IT_number       1

loop_
  _space_group_symop_operation_xyz
  'x, y, z'

loop_
  _atom_site_type_symbol
  _atom_site_label
  _atom_site_symmetry_multiplicity
  _atom_site_fract_x
  _atom_site_fract_y
  _atom_site_fract_z
  _atom_site_occupancy
  C   C1        1.0  0.85879  0.93574  0.94397  1.0000
  C   C2        1.0  0.83513  0.94583  0.98810  1.0000
  C   C3        1.0  0.85201  0.91580  0.02584  1.0000
  C   C4        1.0  0.89834  0.92961  0.04156  1.0000
  C   C5        1.0  0.90060  0.97948  0.05205  1.0000
  N   N1        1.0  0.88610  0.00664  0.01381  1.0000
  C   C6        1.0  0.88934  0.05472  0.02332  1.0000
  C   C7        1.0  0.93723  0.07205  0.02775  1.0000
  C   C8        1.0  0.96579  0.06160  0.98690  1.0000
  C   C9        1.0  0.01209  0.08142  0.99059  1.0000
  O   O1        1.0  0.02486  0.10426  0.02199  1.0000
  N   N2        1.0  0.03876  0.07135  0.95451  1.0000
  C   C10       1.0  0.08569  0.08352  0.95414  1.0000
  C   C11       1.0  0.11430  0.05100  0.98131  1.0000
  C   C12       1.0  0.16205  0.06816  0.98498  1.0000
  O   O2        1.0  0.18865  0.03894  0.01181  1.0000
  C   C13       1.0  0.18192  0.99515  0.00066  1.0000
  C   C14       1.0  0.21285  0.96450  0.01685  1.0000
  C   C15       1.0  0.20855  0.91940  0.00623  1.0000
  C   C16       1.0  0.17329  0.90501  0.97950  1.0000
  C   C17       1.0  0.14206  0.93565  0.96365  1.0000
  C   C18       1.0  0.14610  0.98060  0.97465  1.0000
  O   O3        1.0  0.11387  0.00868  0.95849  1.0000
  C   C19       1.0  0.83998  0.99515  0.00128  1.0000
  H   H1        1.0  0.84479  0.95607  0.91706  1.0000
  H   H2        1.0  0.89460  0.94253  0.94550  1.0000
  H   H3        1.0  0.85440  0.90069  0.93477  1.0000
  H   H4        1.0  0.79956  0.93881  0.98312  1.0000
  H   H5        1.0  0.85225  0.88078  0.01541  1.0000
  H   H6        1.0  0.82884  0.91816  0.05406  1.0000
  H   H7        1.0  0.90728  0.91046  0.07137  1.0000
  H   H8        1.0  0.92314  0.92129  0.01602  1.0000
  H   H9        1.0  0.88018  0.98672  0.08154  1.0000
  H   H10       1.0  0.93524  0.98707  0.06074  1.0000
  H   H11       1.0  0.87383  0.07337  0.99590  1.0000
  H   H12       1.0  0.87057  0.06322  0.05356  1.0000
  H   H13       1.0  0.93582  0.10830  0.03258  1.0000
  H   H14       1.0  0.95307  0.05868  0.05785  1.0000
  H   H15       1.0  0.95001  0.07511  0.95684  1.0000
  H   H16       1.0  0.96938  0.02548  0.98279  1.0000
  H   H17       1.0  0.02916  0.04604  0.93432  1.0000
  H   H18       1.0  0.09594  0.08350  0.91909  1.0000
  H   H19       1.0  0.08886  0.11746  0.96723  1.0000
  H   H20       1.0  0.09992  0.04591  0.01459  1.0000
  H   H21       1.0  0.16273  0.10103  0.00084  1.0000
  H   H22       1.0  0.17791  0.07116  0.95214  1.0000
  H   H23       1.0  0.24041  0.97579  0.03744  1.0000
  H   H24       1.0  0.23278  0.89552  0.01871  1.0000
  H   H25       1.0  0.17004  0.86991  0.97115  1.0000
  H   H26       1.0  0.11444  0.92442  0.94311  1.0000
  H   H27       1.0  0.81712  0.00256  0.02891  1.0000
  H   H28       1.0  0.82935  0.01571  0.97295  1.0000
