data_image0
_chemical_formula_structural       C10FCNC3NCOC4NCH26
_chemical_formula_sum              "C20 F1 N3 O1 H26"
_cell_length_a       30
_cell_length_b       30
_cell_length_c       30
_cell_angle_alpha    90
_cell_angle_beta     90
_cell_angle_gamma    90

_space_group_name_H-M_alt    "P 1"
_space_group_IT_number       1

loop_
  _space_group_symop_operation_xyz
  'x, y, z'

loop_
  _atom_site_type_symbol
  _atom_site_label
  _atom_site_symmetry_multiplicity
  _atom_site_fract_x
  _atom_site_fract_y
  _atom_site_fract_z
  _atom_site_occupancy
  C   C1        1.0  0.91336  0.96174  0.06902  1.0000
  C   C2        1.0  0.94642  0.95883  0.03024  1.0000
  C   C3        1.0  0.93433  0.92323  0.99556  1.0000
  C   C4        1.0  0.89152  0.93132  0.96927  1.0000
  C   C5        1.0  0.89315  0.97370  0.94121  1.0000
  C   C6        1.0  0.88643  0.01551  0.96846  1.0000
  C   C7        1.0  0.84810  0.04150  0.96035  1.0000
  C   C8        1.0  0.84059  0.08099  0.98353  1.0000
  C   C9        1.0  0.87136  0.09499  0.01507  1.0000
  C   C10       1.0  0.90935  0.06948  0.02329  1.0000
  F   F1        1.0  0.93722  0.08458  0.05487  1.0000
  C   C11       1.0  0.91816  0.02921  0.00051  1.0000
  N   N1        1.0  0.95589  0.00237  0.00850  1.0000
  C   C12       1.0  0.99786  0.02378  0.02308  1.0000
  C   C13       1.0  0.01520  0.05717  0.98848  1.0000
  C   C14       1.0  0.06043  0.07661  0.00130  1.0000
  N   N2        1.0  0.09637  0.04500  0.99485  1.0000
  C   C15       1.0  0.11455  0.02078  0.02933  1.0000
  O   O1        1.0  0.10191  0.02461  0.06800  1.0000
  C   C16       1.0  0.15038  0.99139  0.01590  1.0000
  C   C17       1.0  0.19066  0.98525  0.03778  1.0000
  C   C18       1.0  0.21632  0.95425  0.01331  1.0000
  C   C19       1.0  0.19082  0.94085  0.97765  1.0000
  N   N3        1.0  0.15053  0.96237  0.98011  1.0000
  C   C20       1.0  0.11326  0.95289  0.95094  1.0000
  H   H1        1.0  0.91097  0.92952  0.08603  1.0000
  H   H2        1.0  0.87971  0.97088  0.05836  1.0000
  H   H3        1.0  0.92438  0.98644  0.09355  1.0000
  H   H4        1.0  0.97761  0.94680  0.04522  1.0000
  H   H5        1.0  0.93144  0.89089  0.01242  1.0000
  H   H6        1.0  0.96208  0.91990  0.97191  1.0000
  H   H7        1.0  0.88693  0.90289  0.94672  1.0000
  H   H8        1.0  0.86257  0.93157  0.99157  1.0000
  H   H9        1.0  0.86696  0.97143  0.91577  1.0000
  H   H10       1.0  0.92462  0.97612  0.92272  1.0000
  H   H11       1.0  0.82382  0.03093  0.93556  1.0000
  H   H12       1.0  0.81089  0.10065  0.97696  1.0000
  H   H13       1.0  0.86617  0.12556  0.03370  1.0000
  H   H14       1.0  0.02311  0.99758  0.02640  1.0000
  H   H15       1.0  0.99460  0.03872  0.05623  1.0000
  H   H16       1.0  0.01734  0.04101  0.95573  1.0000
  H   H17       1.0  0.99174  0.08491  0.98493  1.0000
  H   H18       1.0  0.06017  0.08873  0.03574  1.0000
  H   H19       1.0  0.06789  0.10502  0.97961  1.0000
  H   H20       1.0  0.11236  0.04484  0.96520  1.0000
  H   H21       1.0  0.20043  0.00224  0.06812  1.0000
  H   H22       1.0  0.24957  0.94263  0.02113  1.0000
  H   H23       1.0  0.19782  0.91709  0.95141  1.0000
  H   H24       1.0  0.11242  0.97830  0.92487  1.0000
  H   H25       1.0  0.08245  0.95303  0.97037  1.0000
  H   H26       1.0  0.11779  0.91994  0.93603  1.0000
