data_image0
_chemical_formula_structural       C5NOC5OC5NC2N2C8OH26
_chemical_formula_sum              "C25 N4 O3 H26"
_cell_length_a       30
_cell_length_b       30
_cell_length_c       30
_cell_angle_alpha    90
_cell_angle_beta     90
_cell_angle_gamma    90

_space_group_name_H-M_alt    "P 1"
_space_group_IT_number       1

loop_
  _space_group_symop_operation_xyz
  'x, y, z'

loop_
  _atom_site_type_symbol
  _atom_site_label
  _atom_site_symmetry_multiplicity
  _atom_site_fract_x
  _atom_site_fract_y
  _atom_site_fract_z
  _atom_site_occupancy
  C   C1        1.0  0.87272  0.11914  0.08613  1.0000
  C   C2        1.0  0.90198  0.09977  0.04938  1.0000
  C   C3        1.0  0.93350  0.06470  0.06775  1.0000
  C   C4        1.0  0.96555  0.05137  0.03096  1.0000
  C   C5        1.0  0.94166  0.03737  0.98855  1.0000
  N   N1        1.0  0.96132  0.01490  0.95706  1.0000
  O   O1        1.0  0.00581  0.00533  0.96807  1.0000
  C   C6        1.0  0.02530  0.97872  0.93378  1.0000
  C   C7        1.0  0.00956  0.92977  0.93641  1.0000
  C   C8        1.0  0.04946  0.90586  0.95507  1.0000
  C   C9        1.0  0.08438  0.93363  0.95771  1.0000
  C   C10       1.0  0.12942  0.92323  0.97691  1.0000
  O   O2        1.0  0.13529  0.94932  0.01655  1.0000
  C   C11       1.0  0.17283  0.97490  0.01834  1.0000
  C   C12       1.0  0.18815  0.00132  0.98330  1.0000
  C   C13       1.0  0.22607  0.02782  0.98912  1.0000
  C   C14       1.0  0.24833  0.02837  0.03015  1.0000
  C   C15       1.0  0.28719  0.05570  0.03592  1.0000
  N   N2        1.0  0.31858  0.07800  0.04040  1.0000
  C   C16       1.0  0.23231  0.00250  0.06548  1.0000
  C   C17       1.0  0.19455  0.97598  0.05950  1.0000
  N   N3        1.0  0.07351  0.97572  0.94164  1.0000
  N   N4        1.0  0.89737  0.05057  0.98331  1.0000
  C   C18       1.0  0.87179  0.03210  0.94605  1.0000
  C   C19       1.0  0.85514  0.98536  0.95552  1.0000
  C   C20       1.0  0.82113  0.97801  0.98668  1.0000
  C   C21       1.0  0.80617  0.93495  0.99582  1.0000
  C   C22       1.0  0.82465  0.89883  0.97366  1.0000
  C   C23       1.0  0.85835  0.90555  0.94231  1.0000
  C   C24       1.0  0.87364  0.94851  0.93332  1.0000
  C   C25       1.0  0.87417  0.07875  0.01250  1.0000
  O   O3        1.0  0.83448  0.08800  0.00796  1.0000
  H   H1        1.0  0.89323  0.13472  0.11205  1.0000
  H   H2        1.0  0.85188  0.09333  0.10167  1.0000
  H   H3        1.0  0.85046  0.14476  0.07273  1.0000
  H   H4        1.0  0.92083  0.12718  0.03422  1.0000
  H   H5        1.0  0.95230  0.07746  0.09625  1.0000
  H   H6        1.0  0.91486  0.03531  0.07912  1.0000
  H   H7        1.0  0.98636  0.02386  0.04300  1.0000
  H   H8        1.0  0.98780  0.07900  0.02248  1.0000
  H   H9        1.0  0.01885  0.99389  0.90121  1.0000
  H   H10       1.0  0.00217  0.91681  0.90317  1.0000
  H   H11       1.0  0.98039  0.92555  0.95784  1.0000
  H   H12       1.0  0.04914  0.87157  0.96569  1.0000
  H   H13       1.0  0.15547  0.92792  0.95174  1.0000
  H   H14       1.0  0.13089  0.88812  0.98707  1.0000
  H   H15       1.0  0.17067  0.00226  0.95155  1.0000
  H   H16       1.0  0.23792  0.04829  0.96158  1.0000
  H   H17       1.0  0.24884  0.00284  0.09776  1.0000
  H   H18       1.0  0.18197  0.95592  0.08689  1.0000
  H   H19       1.0  0.08424  0.00005  0.96288  1.0000
  H   H20       1.0  0.89265  0.03214  0.91599  1.0000
  H   H21       1.0  0.84316  0.05335  0.93808  1.0000
  H   H22       1.0  0.80594  0.00590  0.00411  1.0000
  H   H23       1.0  0.77997  0.92978  0.02022  1.0000
  H   H24       1.0  0.81276  0.86540  0.98085  1.0000
  H   H25       1.0  0.87283  0.87738  0.92499  1.0000
  H   H26       1.0  0.90006  0.95315  0.90893  1.0000
