data_image0
_chemical_formula_structural       C8NC6OC2OCH29
_chemical_formula_sum              "C17 N1 O2 H29"
_cell_length_a       30
_cell_length_b       30
_cell_length_c       30
_cell_angle_alpha    90
_cell_angle_beta     90
_cell_angle_gamma    90

_space_group_name_H-M_alt    "P 1"
_space_group_IT_number       1

loop_
  _space_group_symop_operation_xyz
  'x, y, z'

loop_
  _atom_site_type_symbol
  _atom_site_label
  _atom_site_symmetry_multiplicity
  _atom_site_fract_x
  _atom_site_fract_y
  _atom_site_fract_z
  _atom_site_occupancy
  C   C1        1.0  0.82035  0.97669  0.03139  1.0000
  C   C2        1.0  0.86102  0.98292  0.00100  1.0000
  C   C3        1.0  0.84793  0.01321  0.96190  1.0000
  C   C4        1.0  0.88591  0.03274  0.93431  1.0000
  C   C5        1.0  0.92557  0.00177  0.92765  1.0000
  C   C6        1.0  0.95983  0.00514  0.96520  1.0000
  C   C7        1.0  0.94644  0.98433  0.01008  1.0000
  C   C8        1.0  0.98228  0.99364  0.04609  1.0000
  N   N1        1.0  0.02590  0.97485  0.03661  1.0000
  C   C9        1.0  0.06237  0.00087  0.01915  1.0000
  C   C10       1.0  0.10258  0.97017  0.02459  1.0000
  C   C11       1.0  0.14009  0.97770  0.99078  1.0000
  C   C12       1.0  0.17007  0.01785  0.00062  1.0000
  C   C13       1.0  0.14713  0.06199  0.99756  1.0000
  C   C14       1.0  0.16288  0.09734  0.96547  1.0000
  O   O1        1.0  0.12461  0.07027  0.95630  1.0000
  C   C15       1.0  0.08199  0.92350  0.02004  1.0000
  C   C16       1.0  0.03510  0.92962  0.03703  1.0000
  O   O2        1.0  0.00983  0.89962  0.04769  1.0000
  C   C17       1.0  0.90091  0.00037  0.02802  1.0000
  H   H1        1.0  0.82751  0.95255  0.05782  1.0000
  H   H2        1.0  0.81064  0.00816  0.04715  1.0000
  H   H3        1.0  0.79177  0.96416  0.01244  1.0000
  H   H4        1.0  0.86925  0.94982  0.98775  1.0000
  H   H5        1.0  0.82747  0.04108  0.97389  1.0000
  H   H6        1.0  0.82616  0.99396  0.93962  1.0000
  H   H7        1.0  0.87230  0.04172  0.90156  1.0000
  H   H8        1.0  0.89700  0.06419  0.94931  1.0000
  H   H9        1.0  0.91491  0.96720  0.92261  1.0000
  H   H10       1.0  0.94243  0.01188  0.89678  1.0000
  H   H11       1.0  0.96902  0.04022  0.97008  1.0000
  H   H12       1.0  0.98997  0.98823  0.95330  1.0000
  H   H13       1.0  0.94449  0.94809  0.00530  1.0000
  H   H14       1.0  0.98602  0.02951  0.05196  1.0000
  H   H15       1.0  0.97146  0.97854  0.07759  1.0000
  H   H16       1.0  0.05560  0.00900  0.98428  1.0000
  H   H17       1.0  0.06579  0.03149  0.03860  1.0000
  H   H18       1.0  0.11570  0.97347  0.05862  1.0000
  H   H19       1.0  0.12622  0.98041  0.95705  1.0000
  H   H20       1.0  0.16155  0.94805  0.99064  1.0000
  H   H21       1.0  0.19816  0.01698  0.97723  1.0000
  H   H22       1.0  0.18458  0.01441  0.03399  1.0000
  H   H23       1.0  0.13138  0.07249  0.02823  1.0000
  H   H24       1.0  0.19257  0.09144  0.94583  1.0000
  H   H25       1.0  0.15710  0.13196  0.97393  1.0000
  H   H26       1.0  0.09990  0.89907  0.04029  1.0000
  H   H27       1.0  0.08042  0.91232  0.98533  1.0000
  H   H28       1.0  0.90014  0.03687  0.03023  1.0000
  H   H29       1.0  0.89767  0.98814  0.06237  1.0000
