data_image0
_chemical_formula_structural       C5NFC14OH26
_chemical_formula_sum              "C19 N1 F1 O1 H26"
_cell_length_a       30
_cell_length_b       30
_cell_length_c       30
_cell_angle_alpha    90
_cell_angle_beta     90
_cell_angle_gamma    90

_space_group_name_H-M_alt    "P 1"
_space_group_IT_number       1

loop_
  _space_group_symop_operation_xyz
  'x, y, z'

loop_
  _atom_site_type_symbol
  _atom_site_label
  _atom_site_symmetry_multiplicity
  _atom_site_fract_x
  _atom_site_fract_y
  _atom_site_fract_z
  _atom_site_occupancy
  C   C1        1.0  0.85571  0.05531  0.04431  1.0000
  C   C2        1.0  0.86095  0.01317  0.01687  1.0000
  C   C3        1.0  0.89903  0.01545  0.98355  1.0000
  C   C4        1.0  0.91050  0.96660  0.97805  1.0000
  C   C5        1.0  0.95586  0.95733  0.95752  1.0000
  N   N1        1.0  0.99511  0.97135  0.98463  1.0000
  F   F1        1.0  0.02339  0.93606  0.99278  1.0000
  C   C6        1.0  0.01910  0.01056  0.96785  1.0000
  C   C7        1.0  0.04945  0.03173  0.00378  1.0000
  C   C8        1.0  0.09443  0.00236  0.01071  1.0000
  C   C9        1.0  0.13073  0.00543  0.98091  1.0000
  C   C10       1.0  0.16973  0.98053  0.98650  1.0000
  C   C11       1.0  0.17366  0.95137  0.02228  1.0000
  C   C12       1.0  0.13856  0.94710  0.05221  1.0000
  C   C13       1.0  0.09970  0.97218  0.04636  1.0000
  C   C14       1.0  0.05763  0.08304  0.99492  1.0000
  C   C15       1.0  0.05272  0.09054  0.04542  1.0000
  C   C16       1.0  0.02395  0.04812  0.04669  1.0000
  C   C17       1.0  0.95867  0.95716  0.90692  1.0000
  C   C18       1.0  0.95987  0.91389  0.93157  1.0000
  C   C19       1.0  0.90462  0.94935  0.02540  1.0000
  O   O1        1.0  0.87038  0.97612  0.04574  1.0000
  H   H1        1.0  0.88580  0.06202  0.06389  1.0000
  H   H2        1.0  0.82836  0.05157  0.06820  1.0000
  H   H3        1.0  0.84884  0.08414  0.02307  1.0000
  H   H4        1.0  0.82957  0.00572  0.99967  1.0000
  H   H5        1.0  0.92705  0.03419  0.99747  1.0000
  H   H6        1.0  0.88939  0.03157  0.95227  1.0000
  H   H7        1.0  0.88428  0.95151  0.95733  1.0000
  H   H8        1.0  0.03883  0.00180  0.93837  1.0000
  H   H9        1.0  0.99459  0.03540  0.95694  1.0000
  H   H10       1.0  0.12853  0.02781  0.95245  1.0000
  H   H11       1.0  0.19691  0.98393  0.96281  1.0000
  H   H12       1.0  0.20385  0.93189  0.02672  1.0000
  H   H13       1.0  0.14113  0.92412  0.08009  1.0000
  H   H14       1.0  0.07255  0.96754  0.06996  1.0000
  H   H15       1.0  0.08991  0.09272  0.98105  1.0000
  H   H16       1.0  0.03155  0.09963  0.97538  1.0000
  H   H17       1.0  0.03597  0.12134  0.05531  1.0000
  H   H18       1.0  0.08409  0.08771  0.06394  1.0000
  H   H19       1.0  0.02722  0.02815  0.07696  1.0000
  H   H20       1.0  0.98840  0.05493  0.04157  1.0000
  H   H21       1.0  0.98912  0.96740  0.89043  1.0000
  H   H22       1.0  0.92890  0.96495  0.88794  1.0000
  H   H23       1.0  0.93106  0.89219  0.92933  1.0000
  H   H24       1.0  0.99121  0.89588  0.93231  1.0000
  H   H25       1.0  0.89451  0.91431  0.02611  1.0000
  H   H26       1.0  0.93463  0.95283  0.04587  1.0000
