data_image0
_chemical_formula_structural       C6BrCOCNC3OC5N2C6H20
_chemical_formula_sum              "C22 Br1 O2 N3 H20"
_cell_length_a       30
_cell_length_b       30
_cell_length_c       30
_cell_angle_alpha    90
_cell_angle_beta     90
_cell_angle_gamma    90

_space_group_name_H-M_alt    "P 1"
_space_group_IT_number       1

loop_
  _space_group_symop_operation_xyz
  'x, y, z'

loop_
  _atom_site_type_symbol
  _atom_site_label
  _atom_site_symmetry_multiplicity
  _atom_site_fract_x
  _atom_site_fract_y
  _atom_site_fract_z
  _atom_site_occupancy
  C   C1        1.0  0.04017  0.03939  0.00986  1.0000
  C   C2        1.0  0.06658  0.00882  0.97866  1.0000
  C   C3        1.0  0.03709  0.97316  0.95656  1.0000
  C   C4        1.0  0.02329  0.93787  0.98904  1.0000
  C   C5        1.0  0.98543  0.91394  0.98975  1.0000
  C   C6        1.0  0.94941  0.91747  0.95774  1.0000
  Br  Br1       1.0  0.94698  0.86964  0.91711  1.0000
  C   C7        1.0  0.91940  0.95098  0.95620  1.0000
  O   O1        1.0  0.88610  0.95188  0.92366  1.0000
  C   C8        1.0  0.91794  0.98991  0.98856  1.0000
  N   N1        1.0  0.92779  0.03234  0.96356  1.0000
  C   C9        1.0  0.89290  0.05744  0.96951  1.0000
  C   C10       1.0  0.85791  0.03892  0.99720  1.0000
  C   C11       1.0  0.81742  0.05556  0.01117  1.0000
  O   O2        1.0  0.80106  0.09627  0.99984  1.0000
  C   C12       1.0  0.79156  0.02879  0.03893  1.0000
  C   C13       1.0  0.80666  0.98628  0.05183  1.0000
  C   C14       1.0  0.84784  0.97009  0.03710  1.0000
  C   C15       1.0  0.87313  0.99710  0.00950  1.0000
  C   C16       1.0  0.05689  0.92907  0.02425  1.0000
  N   N2        1.0  0.09350  0.95097  0.03069  1.0000
  N   N3        1.0  0.10312  0.98648  0.00307  1.0000
  C   C17       1.0  0.14437  0.00805  0.01042  1.0000
  C   C18       1.0  0.15532  0.04991  0.99244  1.0000
  C   C19       1.0  0.19676  0.07010  0.00027  1.0000
  C   C20       1.0  0.22861  0.04877  0.02629  1.0000
  C   C21       1.0  0.21906  0.00726  0.04439  1.0000
  C   C22       1.0  0.17762  0.98738  0.03642  1.0000
  H   H1        1.0  0.06169  0.06483  0.02472  1.0000
  H   H2        1.0  0.02467  0.02100  0.03730  1.0000
  H   H3        1.0  0.01380  0.05666  0.99153  1.0000
  H   H4        1.0  0.07972  0.02879  0.95107  1.0000
  H   H5        1.0  0.05636  0.95689  0.93001  1.0000
  H   H6        1.0  0.00849  0.98909  0.94051  1.0000
  H   H7        1.0  0.98057  0.88807  0.01475  1.0000
  H   H8        1.0  0.89128  0.92696  0.90348  1.0000
  H   H9        1.0  0.94264  0.98700  0.01528  1.0000
  H   H10       1.0  0.89037  0.09088  0.95472  1.0000
  H   H11       1.0  0.82085  0.11056  0.97861  1.0000
  H   H12       1.0  0.75942  0.04073  0.05067  1.0000
  H   H13       1.0  0.78594  0.96585  0.07346  1.0000
  H   H14       1.0  0.85937  0.93724  0.04697  1.0000
  H   H15       1.0  0.04953  0.90132  0.04722  1.0000
  H   H16       1.0  0.13192  0.06843  0.97206  1.0000
  H   H17       1.0  0.20392  0.10260  0.98594  1.0000
  H   H18       1.0  0.26068  0.06440  0.03240  1.0000
  H   H19       1.0  0.24359  0.99009  0.06475  1.0000
  H   H20       1.0  0.17129  0.95476  0.05096  1.0000
