data_image0
_chemical_formula_structural       C3NCOC7NSC6H30
_chemical_formula_sum              "C17 N2 O1 S1 H30"
_cell_length_a       30
_cell_length_b       30
_cell_length_c       30
_cell_angle_alpha    90
_cell_angle_beta     90
_cell_angle_gamma    90

_space_group_name_H-M_alt    "P 1"
_space_group_IT_number       1

loop_
  _space_group_symop_operation_xyz
  'x, y, z'

loop_
  _atom_site_type_symbol
  _atom_site_label
  _atom_site_symmetry_multiplicity
  _atom_site_fract_x
  _atom_site_fract_y
  _atom_site_fract_z
  _atom_site_occupancy
  C   C1        1.0  0.05923  0.95772  0.04859  1.0000
  C   C2        1.0  0.06866  0.97459  0.00121  1.0000
  C   C3        1.0  0.04066  0.01571  0.98769  1.0000
  N   N1        1.0  0.99616  0.01736  0.00490  1.0000
  C   C4        1.0  0.96301  0.99024  0.98851  1.0000
  O   O1        1.0  0.97036  0.96133  0.96046  1.0000
  C   C5        1.0  0.91687  0.99921  0.00857  1.0000
  C   C6        1.0  0.89961  0.04483  0.99306  1.0000
  C   C7        1.0  0.85577  0.05944  0.01452  1.0000
  C   C8        1.0  0.81529  0.03521  0.99582  1.0000
  C   C9        1.0  0.80501  0.99016  0.01704  1.0000
  C   C10       1.0  0.84416  0.96042  0.03054  1.0000
  C   C11       1.0  0.88517  0.95943  0.99987  1.0000
  N   N2        1.0  0.87190  0.95440  0.95310  1.0000
  S   S1        1.0  0.07070  0.06414  0.00859  1.0000
  C   C12       1.0  0.12277  0.03454  0.01753  1.0000
  C   C13       1.0  0.16414  0.05915  0.00083  1.0000
  C   C14       1.0  0.20184  0.02689  0.98797  1.0000
  C   C15       1.0  0.19923  0.98249  0.01287  1.0000
  C   C16       1.0  0.15467  0.95809  0.00586  1.0000
  C   C17       1.0  0.11695  0.99014  0.99322  1.0000
  H   H1        1.0  0.06624  0.98283  0.07407  1.0000
  H   H2        1.0  0.02429  0.94778  0.05217  1.0000
  H   H3        1.0  0.07906  0.92808  0.05617  1.0000
  H   H4        1.0  0.06099  0.94700  0.97843  1.0000
  H   H5        1.0  0.03916  0.01832  0.95126  1.0000
  H   H6        1.0  0.98881  0.04328  0.02510  1.0000
  H   H7        1.0  0.92231  0.00100  0.04480  1.0000
  H   H8        1.0  0.92451  0.07039  0.00114  1.0000
  H   H9        1.0  0.89670  0.04557  0.95660  1.0000
  H   H10       1.0  0.85733  0.05644  0.05090  1.0000
  H   H11       1.0  0.85157  0.09507  0.00731  1.0000
  H   H12       1.0  0.81872  0.03139  0.95963  1.0000
  H   H13       1.0  0.78584  0.05644  0.00049  1.0000
  H   H14       1.0  0.78465  0.99574  0.04694  1.0000
  H   H15       1.0  0.78337  0.97162  0.99408  1.0000
  H   H16       1.0  0.83118  0.92630  0.03370  1.0000
  H   H17       1.0  0.85478  0.96968  0.06432  1.0000
  H   H18       1.0  0.90369  0.92910  0.00880  1.0000
  H   H19       1.0  0.85494  0.92521  0.94921  1.0000
  H   H20       1.0  0.90040  0.95087  0.93449  1.0000
  H   H21       1.0  0.12601  0.02902  0.05353  1.0000
  H   H22       1.0  0.17588  0.08175  0.02709  1.0000
  H   H23       1.0  0.15669  0.08015  0.97183  1.0000
  H   H24       1.0  0.23414  0.04284  0.99403  1.0000
  H   H25       1.0  0.20019  0.02032  0.95202  1.0000
  H   H26       1.0  0.22677  0.96074  0.00274  1.0000
  H   H27       1.0  0.20375  0.98886  0.04862  1.0000
  H   H28       1.0  0.15834  0.93328  0.97925  1.0000
  H   H29       1.0  0.14728  0.93934  0.03624  1.0000
  H   H30       1.0  0.12024  0.99612  0.95711  1.0000
