data_image0
_chemical_formula_structural       C6NCOCSC3NC6F3C2N2CNCNH21
_chemical_formula_sum              "C21 N6 O1 S1 F3 H21"
_cell_length_a       30
_cell_length_b       30
_cell_length_c       30
_cell_angle_alpha    90
_cell_angle_beta     90
_cell_angle_gamma    90

_space_group_name_H-M_alt    "P 1"
_space_group_IT_number       1

loop_
  _space_group_symop_operation_xyz
  'x, y, z'

loop_
  _atom_site_type_symbol
  _atom_site_label
  _atom_site_symmetry_multiplicity
  _atom_site_fract_x
  _atom_site_fract_y
  _atom_site_fract_z
  _atom_site_occupancy
  C   C1        1.0  0.83486  0.99828  0.04309  1.0000
  C   C2        1.0  0.87910  0.01274  0.02208  1.0000
  C   C3        1.0  0.87464  0.05772  0.99802  1.0000
  C   C4        1.0  0.84598  0.05527  0.95604  1.0000
  C   C5        1.0  0.85052  0.01088  0.93157  1.0000
  C   C6        1.0  0.89305  0.98608  0.94398  1.0000
  N   N1        1.0  0.89670  0.97789  0.99209  1.0000
  C   C7        1.0  0.92106  0.94059  0.00544  1.0000
  O   O1        1.0  0.93804  0.91544  0.97758  1.0000
  C   C8        1.0  0.92720  0.93122  0.05517  1.0000
  S   S1        1.0  0.98573  0.92216  0.06994  1.0000
  C   C9        1.0  0.01134  0.96418  0.03822  1.0000
  C   C10       1.0  0.03880  0.95357  0.00376  1.0000
  C   C11       1.0  0.04961  0.90885  0.99160  1.0000
  N   N2        1.0  0.06023  0.87333  0.98059  1.0000
  C   C12       1.0  0.05900  0.99011  0.97458  1.0000
  C   C13       1.0  0.10976  0.99186  0.97818  1.0000
  C   C14       1.0  0.13118  0.00378  0.01812  1.0000
  C   C15       1.0  0.17767  0.00456  0.02080  1.0000
  C   C16       1.0  0.20387  0.99311  0.98384  1.0000
  C   C17       1.0  0.25408  0.99475  0.98655  1.0000
  F   F1        1.0  0.27446  0.96510  0.95884  1.0000
  F   F2        1.0  0.26997  0.98573  0.02814  1.0000
  F   F3        1.0  0.27062  0.03554  0.97550  1.0000
  C   C18       1.0  0.18257  0.98132  0.94395  1.0000
  C   C19       1.0  0.13608  0.98056  0.94118  1.0000
  N   N3        1.0  0.03979  0.03393  0.98452  1.0000
  N   N4        1.0  0.04473  0.07053  0.95896  1.0000
  C   C20       1.0  0.02208  0.10049  0.98303  1.0000
  N   N5        1.0  0.00210  0.08447  0.02095  1.0000
  C   C21       1.0  0.01319  0.04233  0.02050  1.0000
  N   N6        1.0  0.00222  0.00853  0.04765  1.0000
  H   H1        1.0  0.83861  0.96735  0.06206  1.0000
  H   H2        1.0  0.82248  0.02391  0.06594  1.0000
  H   H3        1.0  0.80912  0.99221  0.01796  1.0000
  H   H4        1.0  0.90323  0.01783  0.04895  1.0000
  H   H5        1.0  0.90809  0.06906  0.98840  1.0000
  H   H6        1.0  0.86139  0.08323  0.02058  1.0000
  H   H7        1.0  0.81083  0.06068  0.96450  1.0000
  H   H8        1.0  0.85534  0.08272  0.93379  1.0000
  H   H9        1.0  0.82173  0.98981  0.93963  1.0000
  H   H10       1.0  0.84930  0.01651  0.89550  1.0000
  H   H11       1.0  0.92251  0.00535  0.93408  1.0000
  H   H12       1.0  0.89420  0.95450  0.92570  1.0000
  H   H13       1.0  0.90845  0.90094  0.06310  1.0000
  H   H14       1.0  0.91464  0.95751  0.07673  1.0000
  H   H15       1.0  0.04916  0.98374  0.93985  1.0000
  H   H16       1.0  0.11201  0.01279  0.04760  1.0000
  H   H17       1.0  0.19350  0.01414  0.05205  1.0000
  H   H18       1.0  0.20222  0.97255  0.91469  1.0000
  H   H19       1.0  0.12069  0.97104  0.90969  1.0000
  H   H20       1.0  0.01976  0.13498  0.97262  1.0000
  H   H21       1.0  0.98247  0.01423  0.07449  1.0000
