data_image0
_chemical_formula_structural       C3OC5OC2N3C9H25
_chemical_formula_sum              "C19 O2 N3 H25"
_cell_length_a       30
_cell_length_b       30
_cell_length_c       30
_cell_angle_alpha    90
_cell_angle_beta     90
_cell_angle_gamma    90

_space_group_name_H-M_alt    "P 1"
_space_group_IT_number       1

loop_
  _space_group_symop_operation_xyz
  'x, y, z'

loop_
  _atom_site_type_symbol
  _atom_site_label
  _atom_site_symmetry_multiplicity
  _atom_site_fract_x
  _atom_site_fract_y
  _atom_site_fract_z
  _atom_site_occupancy
  C   C1        1.0  0.95730  0.94835  0.04662  1.0000
  C   C2        1.0  0.91733  0.97254  0.02660  1.0000
  C   C3        1.0  0.89464  0.94437  0.99126  1.0000
  O   O1        1.0  0.89549  0.90333  0.99221  1.0000
  C   C4        1.0  0.87096  0.96840  0.95411  1.0000
  C   C5        1.0  0.85616  0.01454  0.96891  1.0000
  C   C6        1.0  0.81573  0.01303  0.99883  1.0000
  C   C7        1.0  0.76947  0.01074  0.97922  1.0000
  C   C8        1.0  0.78503  0.05276  0.00164  1.0000
  O   O2        1.0  0.88958  0.04069  0.99040  1.0000
  C   C9        1.0  0.92856  0.01841  0.00696  1.0000
  C   C10       1.0  0.96562  0.01943  0.97140  1.0000
  N   N1        1.0  0.00937  0.01916  0.99339  1.0000
  N   N2        1.0  0.04022  0.01355  0.96629  1.0000
  N   N3        1.0  0.08152  0.01282  0.98583  1.0000
  C   C11       1.0  0.08727  0.99616  0.03130  1.0000
  C   C12       1.0  0.13012  0.01453  0.05184  1.0000
  C   C13       1.0  0.16975  0.00904  0.02142  1.0000
  C   C14       1.0  0.21301  0.01061  0.03902  1.0000
  C   C15       1.0  0.24993  0.00684  0.01104  1.0000
  C   C16       1.0  0.24397  0.00179  0.96529  1.0000
  C   C17       1.0  0.20106  0.00062  0.94742  1.0000
  C   C18       1.0  0.16359  0.00455  0.97515  1.0000
  C   C19       1.0  0.11757  0.00233  0.95476  1.0000
  H   H1        1.0  0.97502  0.96968  0.07034  1.0000
  H   H2        1.0  0.94644  0.91849  0.06466  1.0000
  H   H3        1.0  0.98076  0.93725  0.02095  1.0000
  H   H4        1.0  0.89251  0.97721  0.05306  1.0000
  H   H5        1.0  0.84240  0.94840  0.94327  1.0000
  H   H6        1.0  0.89432  0.97093  0.92619  1.0000
  H   H7        1.0  0.84709  0.03315  0.93876  1.0000
  H   H8        1.0  0.82157  0.99504  0.02960  1.0000
  H   H9        1.0  0.76556  0.01130  0.94330  1.0000
  H   H10       1.0  0.74482  0.99059  0.99636  1.0000
  H   H11       1.0  0.77109  0.06103  0.03394  1.0000
  H   H12       1.0  0.79217  0.08155  0.98098  1.0000
  H   H13       1.0  0.93984  0.03952  0.03466  1.0000
  H   H14       1.0  0.96279  0.99117  0.94845  1.0000
  H   H15       1.0  0.96251  0.04986  0.95134  1.0000
  H   H16       1.0  0.05931  0.00608  0.05253  1.0000
  H   H17       1.0  0.08800  0.95964  0.02974  1.0000
  H   H18       1.0  0.12607  0.05025  0.05858  1.0000
  H   H19       1.0  0.13616  0.99771  0.08370  1.0000
  H   H20       1.0  0.21813  0.01485  0.07465  1.0000
  H   H21       1.0  0.28336  0.00796  0.02494  1.0000
  H   H22       1.0  0.27276  0.99884  0.94349  1.0000
  H   H23       1.0  0.19693  0.99669  0.91160  1.0000
  H   H24       1.0  0.11190  0.96840  0.94238  1.0000
  H   H25       1.0  0.11526  0.02584  0.92687  1.0000
