data_image0
_chemical_formula_structural       C3NSO2NC4OC7OH28
_chemical_formula_sum              "C14 N2 S1 O4 H28"
_cell_length_a       30
_cell_length_b       30
_cell_length_c       30
_cell_angle_alpha    90
_cell_angle_beta     90
_cell_angle_gamma    90

_space_group_name_H-M_alt    "P 1"
_space_group_IT_number       1

loop_
  _space_group_symop_operation_xyz
  'x, y, z'

loop_
  _atom_site_type_symbol
  _atom_site_label
  _atom_site_symmetry_multiplicity
  _atom_site_fract_x
  _atom_site_fract_y
  _atom_site_fract_z
  _atom_site_occupancy
  C   C1        1.0  0.86031  0.02467  0.95576  1.0000
  C   C2        1.0  0.87107  0.01980  0.00522  1.0000
  C   C3        1.0  0.91991  0.03103  0.01650  1.0000
  N   N1        1.0  0.95177  0.99623  0.00086  1.0000
  S   S1        1.0  0.98570  0.00880  0.95782  1.0000
  O   O1        1.0  0.96607  0.04484  0.93271  1.0000
  O   O2        1.0  0.99850  0.96747  0.93666  1.0000
  N   N2        1.0  0.03082  0.02841  0.98571  1.0000
  C   C4        1.0  0.06038  0.99491  0.00696  1.0000
  C   C5        1.0  0.09510  0.97717  0.97420  1.0000
  C   C6        1.0  0.11787  0.93499  0.99023  1.0000
  C   C7        1.0  0.15927  0.93418  0.96144  1.0000
  O   O3        1.0  0.17178  0.97977  0.95449  1.0000
  C   C8        1.0  0.13494  0.00767  0.96723  1.0000
  C   C9        1.0  0.02829  0.07387  0.00552  1.0000
  C   C10       1.0  0.06885  0.10111  0.99137  1.0000
  C   C11       1.0  0.02330  0.07355  0.05619  1.0000
  C   C12       1.0  0.93213  0.95050  0.99990  1.0000
  C   C13       1.0  0.89271  0.94720  0.03238  1.0000
  C   C14       1.0  0.87408  0.90001  0.03381  1.0000
  O   O4        1.0  0.85694  0.97632  0.01965  1.0000
  H   H1        1.0  0.87813  0.00018  0.93547  1.0000
  H   H2        1.0  0.82473  0.01879  0.95001  1.0000
  H   H3        1.0  0.86853  0.05810  0.94369  1.0000
  H   H4        1.0  0.84989  0.04360  0.02315  1.0000
  H   H5        1.0  0.92843  0.06421  0.00409  1.0000
  H   H6        1.0  0.92342  0.03267  0.05287  1.0000
  H   H7        1.0  0.03994  0.96743  0.01975  1.0000
  H   H8        1.0  0.07739  0.00867  0.03610  1.0000
  H   H9        1.0  0.08028  0.97027  0.94153  1.0000
  H   H10       1.0  0.09746  0.90505  0.98635  1.0000
  H   H11       1.0  0.12724  0.93803  0.02544  1.0000
  H   H12       1.0  0.15243  0.91935  0.92879  1.0000
  H   H13       1.0  0.18682  0.91605  0.97695  1.0000
  H   H14       1.0  0.14474  0.02494  0.99785  1.0000
  H   H15       1.0  0.12912  0.03248  0.94115  1.0000
  H   H16       1.0  0.99921  0.09123  0.99192  1.0000
  H   H17       1.0  0.09954  0.08846  0.00643  1.0000
  H   H18       1.0  0.07297  0.10051  0.95510  1.0000
  H   H19       1.0  0.06512  0.13594  0.00169  1.0000
  H   H20       1.0  0.99837  0.04944  0.06728  1.0000
  H   H21       1.0  0.01307  0.10656  0.06799  1.0000
  H   H22       1.0  0.05464  0.06558  0.07311  1.0000
  H   H23       1.0  0.95809  0.92660  0.00932  1.0000
  H   H24       1.0  0.92056  0.94278  0.96612  1.0000
  H   H25       1.0  0.90327  0.95649  0.06614  1.0000
  H   H26       1.0  0.84583  0.89815  0.05686  1.0000
  H   H27       1.0  0.89942  0.87605  0.04452  1.0000
  H   H28       1.0  0.86156  0.88990  0.00103  1.0000
