data_image0
_chemical_formula_structural       C4NC2OCOC5OC12ONC5H36
_chemical_formula_sum              "C29 N2 O4 H36"
_cell_length_a       30
_cell_length_b       30
_cell_length_c       30
_cell_angle_alpha    90
_cell_angle_beta     90
_cell_angle_gamma    90

_space_group_name_H-M_alt    "P 1"
_space_group_IT_number       1

loop_
  _space_group_symop_operation_xyz
  'x, y, z'

loop_
  _atom_site_type_symbol
  _atom_site_label
  _atom_site_symmetry_multiplicity
  _atom_site_fract_x
  _atom_site_fract_y
  _atom_site_fract_z
  _atom_site_occupancy
  C   C1        1.0  0.35342  0.99636  0.98411  1.0000
  C   C2        1.0  0.30711  0.00521  0.96477  1.0000
  C   C3        1.0  0.27500  0.02383  0.00012  1.0000
  C   C4        1.0  0.24630  0.98720  0.02092  1.0000
  N   N1        1.0  0.21908  0.96226  0.98848  1.0000
  C   C5        1.0  0.17181  0.97663  0.98797  1.0000
  C   C6        1.0  0.14648  0.95922  0.02932  1.0000
  O   O1        1.0  0.15493  0.91244  0.03413  1.0000
  C   C7        1.0  0.09618  0.96697  0.02543  1.0000
  O   O2        1.0  0.08751  0.01367  0.02110  1.0000
  C   C8        1.0  0.04328  0.02552  0.02698  1.0000
  C   C9        1.0  0.03385  0.05997  0.05380  1.0000
  C   C10       1.0  0.98896  0.07572  0.05992  1.0000
  C   C11       1.0  0.95358  0.05507  0.04211  1.0000
  C   C12       1.0  0.90818  0.07208  0.04936  1.0000
  O   O3        1.0  0.90103  0.10720  0.06909  1.0000
  C   C13       1.0  0.87260  0.04326  0.03060  1.0000
  C   C14       1.0  0.83091  0.05990  0.03330  1.0000
  C   C15       1.0  0.78973  0.03939  0.01702  1.0000
  C   C16       1.0  0.77475  0.04813  0.97381  1.0000
  C   C17       1.0  0.73493  0.02936  0.95850  1.0000
  C   C18       1.0  0.70939  0.00160  0.98615  1.0000
  C   C19       1.0  0.66629  0.98152  0.96878  1.0000
  C   C20       1.0  0.62626  0.99453  0.99765  1.0000
  C   C21       1.0  0.66987  0.93080  0.96447  1.0000
  C   C22       1.0  0.72486  0.99287  0.02941  1.0000
  C   C23       1.0  0.76463  0.01169  0.04478  1.0000
  C   C24       1.0  0.88376  0.99874  0.01105  1.0000
  O   O4        1.0  0.85533  0.97018  0.00495  1.0000
  N   N2        1.0  0.92752  0.99066  0.00020  1.0000
  C   C25       1.0  0.96009  0.01511  0.01429  1.0000
  C   C26       1.0  0.00768  0.00169  0.00026  1.0000
  C   C27       1.0  0.01333  0.01084  0.95041  1.0000
  C   C28       1.0  0.23752  0.96334  0.94294  1.0000
  C   C29       1.0  0.28841  0.96276  0.94301  1.0000
  H   H1        1.0  0.37603  0.98381  0.95834  1.0000
  H   H2        1.0  0.36785  0.02708  0.99763  1.0000
  H   H3        1.0  0.35208  0.97174  0.01105  1.0000
  H   H4        1.0  0.31093  0.03085  0.93892  1.0000
  H   H5        1.0  0.29330  0.04164  0.02626  1.0000
  H   H6        1.0  0.25300  0.04857  0.98448  1.0000
  H   H7        1.0  0.26830  0.96316  0.03757  1.0000
  H   H8        1.0  0.22598  0.00172  0.04757  1.0000
  H   H9        1.0  0.16901  0.01294  0.98485  1.0000
  H   H10       1.0  0.15577  0.96187  0.95855  1.0000
  H   H11       1.0  0.15873  0.97585  0.05940  1.0000
  H   H12       1.0  0.18592  0.90882  0.02436  1.0000
  H   H13       1.0  0.08334  0.94893  0.99635  1.0000
  H   H14       1.0  0.07959  0.95349  0.05514  1.0000
  H   H15       1.0  0.06035  0.07733  0.07140  1.0000
  H   H16       1.0  0.98484  0.10546  0.08033  1.0000
  H   H17       1.0  0.82507  0.09244  0.04840  1.0000
  H   H18       1.0  0.79380  0.06957  0.95166  1.0000
  H   H19       1.0  0.72402  0.03657  0.92467  1.0000
  H   H20       1.0  0.65997  0.99481  0.93524  1.0000
  H   H21       1.0  0.59522  0.98244  0.98268  1.0000
  H   H22       1.0  0.62373  0.03083  0.00087  1.0000
  H   H23       1.0  0.62849  0.98046  0.03127  1.0000
  H   H24       1.0  0.67525  0.91467  0.99678  1.0000
  H   H25       1.0  0.69762  0.92153  0.94256  1.0000
  H   H26       1.0  0.63925  0.91697  0.95015  1.0000
  H   H27       1.0  0.70620  0.97113  0.05162  1.0000
  H   H28       1.0  0.77588  0.00419  0.07840  1.0000
  H   H29       1.0  0.01002  0.96569  0.00632  1.0000
  H   H30       1.0  0.00712  0.04600  0.94271  1.0000
  H   H31       1.0  0.04687  0.00232  0.93884  1.0000
  H   H32       1.0  0.98953  0.99120  0.93085  1.0000
  H   H33       1.0  0.22615  0.99306  0.92483  1.0000
  H   H34       1.0  0.22522  0.93419  0.92463  1.0000
  H   H35       1.0  0.30010  0.93285  0.96056  1.0000
  H   H36       1.0  0.30091  0.96010  0.90878  1.0000
