data_image0
_chemical_formula_structural       C4NCONC3OC2H20
_chemical_formula_sum              "C10 N2 O2 H20"
_cell_length_a       30
_cell_length_b       30
_cell_length_c       30
_cell_angle_alpha    90
_cell_angle_beta     90
_cell_angle_gamma    90

_space_group_name_H-M_alt    "P 1"
_space_group_IT_number       1

loop_
  _space_group_symop_operation_xyz
  'x, y, z'

loop_
  _atom_site_type_symbol
  _atom_site_label
  _atom_site_symmetry_multiplicity
  _atom_site_fract_x
  _atom_site_fract_y
  _atom_site_fract_z
  _atom_site_occupancy
  C   C1        1.0  0.84619  0.97796  0.98410  1.0000
  C   C2        1.0  0.88877  0.00011  0.00099  1.0000
  C   C3        1.0  0.92252  0.96514  0.01673  1.0000
  C   C4        1.0  0.96594  0.98684  0.03198  1.0000
  N   N1        1.0  0.98452  0.01662  0.99799  1.0000
  C   C5        1.0  0.02931  0.02897  0.99839  1.0000
  O   O1        1.0  0.04287  0.06508  0.98477  1.0000
  N   N2        1.0  0.05747  0.99680  0.01463  1.0000
  C   C6        1.0  0.10564  0.00409  0.01624  1.0000
  C   C7        1.0  0.12685  0.96948  0.04703  1.0000
  C   C8        1.0  0.12673  0.00323  0.96940  1.0000
  O   O2        1.0  0.17392  0.00799  0.97169  1.0000
  C   C9        1.0  0.95352  0.04989  0.98051  1.0000
  C   C10       1.0  0.90991  0.02909  0.96461  1.0000
  H   H1        1.0  0.82188  0.00305  0.97353  1.0000
  H   H2        1.0  0.83079  0.95784  0.01038  1.0000
  H   H3        1.0  0.85293  0.95609  0.95565  1.0000
  H   H4        1.0  0.87997  0.02150  0.02936  1.0000
  H   H5        1.0  0.90846  0.94550  0.04415  1.0000
  H   H6        1.0  0.92974  0.94183  0.98945  1.0000
  H   H7        1.0  0.96028  0.00696  0.06199  1.0000
  H   H8        1.0  0.98958  0.96070  0.04122  1.0000
  H   H9        1.0  0.04765  0.96550  0.00727  1.0000
  H   H10       1.0  0.11150  0.03711  0.03086  1.0000
  H   H11       1.0  0.16253  0.97567  0.05148  1.0000
  H   H12       1.0  0.11122  0.97031  0.08003  1.0000
  H   H13       1.0  0.12266  0.93572  0.03375  1.0000
  H   H14       1.0  0.11929  0.97169  0.95256  1.0000
  H   H15       1.0  0.11357  0.03029  0.94875  1.0000
  H   H16       1.0  0.18431  0.01265  0.94133  1.0000
  H   H17       1.0  0.94723  0.07423  0.00708  1.0000
  H   H18       1.0  0.96895  0.06788  0.95271  1.0000
  H   H19       1.0  0.88680  0.05552  0.95448  1.0000
  H   H20       1.0  0.91651  0.00869  0.93496  1.0000
