data_image0
_chemical_formula_structural       C4NCONC8NCOCOC5H31
_chemical_formula_sum              "C20 N3 O3 H31"
_cell_length_a       30
_cell_length_b       30
_cell_length_c       30
_cell_angle_alpha    90
_cell_angle_beta     90
_cell_angle_gamma    90

_space_group_name_H-M_alt    "P 1"
_space_group_IT_number       1

loop_
  _space_group_symop_operation_xyz
  'x, y, z'

loop_
  _atom_site_type_symbol
  _atom_site_label
  _atom_site_symmetry_multiplicity
  _atom_site_fract_x
  _atom_site_fract_y
  _atom_site_fract_z
  _atom_site_occupancy
  C   C1        1.0  0.80989  0.90782  0.96259  1.0000
  C   C2        1.0  0.83194  0.93095  0.00226  1.0000
  C   C3        1.0  0.88076  0.94171  0.99236  1.0000
  C   C4        1.0  0.90475  0.96037  0.03361  1.0000
  N   N1        1.0  0.94198  0.98895  0.02094  1.0000
  C   C5        1.0  0.98063  0.97107  0.00412  1.0000
  O   O1        1.0  0.98816  0.93121  0.00055  1.0000
  N   N2        1.0  0.00968  0.00429  0.99177  1.0000
  C   C6        1.0  0.05434  0.99255  0.97705  1.0000
  C   C7        1.0  0.07621  0.03054  0.95124  1.0000
  C   C8        1.0  0.12261  0.01922  0.93847  1.0000
  C   C9        1.0  0.14133  0.99857  0.90196  1.0000
  C   C10       1.0  0.18782  0.99708  0.90998  1.0000
  C   C11       1.0  0.19462  0.01702  0.95084  1.0000
  C   C12       1.0  0.23548  0.02580  0.97799  1.0000
  C   C13       1.0  0.24544  0.07557  0.98195  1.0000
  N   N3        1.0  0.22660  0.08835  0.02393  1.0000
  C   C14       1.0  0.21761  0.05235  0.05092  1.0000
  O   O2        1.0  0.20360  0.05474  0.08898  1.0000
  C   C15       1.0  0.23040  0.01034  0.02645  1.0000
  O   O3        1.0  0.15493  0.03070  0.96815  1.0000
  C   C16       1.0  0.87321  0.98447  0.06612  1.0000
  C   C17       1.0  0.83235  0.00692  0.04420  1.0000
  C   C18       1.0  0.80178  0.02512  0.08133  1.0000
  C   C19       1.0  0.84675  0.04699  0.01539  1.0000
  C   C20       1.0  0.80577  0.97312  0.01539  1.0000
  H   H1        1.0  0.82733  0.87683  0.95433  1.0000
  H   H2        1.0  0.81017  0.92915  0.93295  1.0000
  H   H3        1.0  0.77518  0.89943  0.97018  1.0000
  H   H4        1.0  0.83090  0.90758  0.03044  1.0000
  H   H5        1.0  0.89823  0.91164  0.98102  1.0000
  H   H6        1.0  0.88266  0.96531  0.96446  1.0000
  H   H7        1.0  0.91933  0.93218  0.05187  1.0000
  H   H8        1.0  0.93446  0.01923  0.00843  1.0000
  H   H9        1.0  0.00761  0.03127  0.01183  1.0000
  H   H10       1.0  0.05258  0.96245  0.95635  1.0000
  H   H11       1.0  0.07369  0.98405  0.00689  1.0000
  H   H12       1.0  0.05665  0.03801  0.92127  1.0000
  H   H13       1.0  0.07609  0.06104  0.97144  1.0000
  H   H14       1.0  0.12358  0.98588  0.87327  1.0000
  H   H15       1.0  0.21322  0.98302  0.88862  1.0000
  H   H16       1.0  0.26341  0.00848  0.96197  1.0000
  H   H17       1.0  0.28137  0.08174  0.98393  1.0000
  H   H18       1.0  0.23117  0.09605  0.95535  1.0000
  H   H19       1.0  0.22194  0.11990  0.03495  1.0000
  H   H20       1.0  0.20504  0.98454  0.03098  1.0000
  H   H21       1.0  0.26236  0.99885  0.03986  1.0000
  H   H22       1.0  0.86082  0.95946  0.08989  1.0000
  H   H23       1.0  0.89185  0.00872  0.08625  1.0000
  H   H24       1.0  0.77218  0.04129  0.06732  1.0000
  H   H25       1.0  0.81923  0.04973  0.10192  1.0000
  H   H26       1.0  0.79039  0.99834  0.10338  1.0000
  H   H27       1.0  0.81767  0.06572  0.00357  1.0000
  H   H28       1.0  0.86547  0.03679  0.98583  1.0000
  H   H29       1.0  0.86763  0.07009  0.03447  1.0000
  H   H30       1.0  0.79342  0.98991  0.98530  1.0000
  H   H31       1.0  0.77571  0.96214  0.03317  1.0000
