data_image0
_chemical_formula_structural       C9N2C4NC2NSO2C4FC4OH27
_chemical_formula_sum              "C23 N4 S1 O3 F1 H27"
_cell_length_a       30
_cell_length_b       30
_cell_length_c       30
_cell_angle_alpha    90
_cell_angle_beta     90
_cell_angle_gamma    90

_space_group_name_H-M_alt    "P 1"
_space_group_IT_number       1

loop_
  _space_group_symop_operation_xyz
  'x, y, z'

loop_
  _atom_site_type_symbol
  _atom_site_label
  _atom_site_symmetry_multiplicity
  _atom_site_fract_x
  _atom_site_fract_y
  _atom_site_fract_z
  _atom_site_occupancy
  C   C1        1.0  0.75640  0.09281  0.93029  1.0000
  C   C2        1.0  0.77929  0.07054  0.96836  1.0000
  C   C3        1.0  0.75677  0.03299  0.99291  1.0000
  C   C4        1.0  0.79633  0.02347  0.96336  1.0000
  C   C5        1.0  0.84100  0.00854  0.98506  1.0000
  C   C6        1.0  0.86497  0.03033  0.01752  1.0000
  C   C7        1.0  0.90307  0.00372  0.02600  1.0000
  C   C8        1.0  0.90041  0.96702  0.99833  1.0000
  C   C9        1.0  0.93398  0.92687  0.99430  1.0000
  N   N1        1.0  0.92552  0.89406  0.96510  1.0000
  N   N2        1.0  0.95954  0.86570  0.97000  1.0000
  C   C10       1.0  0.96111  0.82590  0.94300  1.0000
  C   C11       1.0  0.98950  0.87870  0.00140  1.0000
  C   C12       1.0  0.97433  0.91888  0.01822  1.0000
  C   C13       1.0  0.99624  0.94541  0.05411  1.0000
  N   N3        1.0  0.01576  0.98668  0.03626  1.0000
  C   C14       1.0  0.05167  0.97750  0.00357  1.0000
  C   C15       1.0  0.08555  0.01581  0.99930  1.0000
  N   N4        1.0  0.10953  0.02380  0.04243  1.0000
  S   S1        1.0  0.16259  0.00383  0.04551  1.0000
  O   O1        1.0  0.16209  0.95873  0.02839  1.0000
  O   O2        1.0  0.17978  0.01372  0.08951  1.0000
  C   C16       1.0  0.19162  0.03842  0.00717  1.0000
  C   C17       1.0  0.19786  0.08344  0.01788  1.0000
  C   C18       1.0  0.22109  0.11091  0.98842  1.0000
  C   C19       1.0  0.23785  0.09314  0.94895  1.0000
  F   F1        1.0  0.26035  0.11955  0.92080  1.0000
  C   C20       1.0  0.23195  0.04829  0.93836  1.0000
  C   C21       1.0  0.20879  0.02055  0.96764  1.0000
  C   C22       1.0  0.08194  0.01223  0.08242  1.0000
  C   C23       1.0  0.03179  0.01613  0.07240  1.0000
  O   O3        1.0  0.86227  0.97027  0.97336  1.0000
  H   H1        1.0  0.73407  0.11889  0.94265  1.0000
  H   H2        1.0  0.73666  0.06938  0.91046  1.0000
  H   H3        1.0  0.78097  0.10837  0.90828  1.0000
  H   H4        1.0  0.79842  0.09421  0.98774  1.0000
  H   H5        1.0  0.72434  0.02172  0.98151  1.0000
  H   H6        1.0  0.76111  0.03113  0.02874  1.0000
  H   H7        1.0  0.78947  0.00642  0.93218  1.0000
  H   H8        1.0  0.85633  0.06154  0.03326  1.0000
  H   H9        1.0  0.92919  0.01111  0.04951  1.0000
  H   H10       1.0  0.93220  0.80523  0.95132  1.0000
  H   H11       1.0  0.96016  0.83579  0.90797  1.0000
  H   H12       1.0  0.99190  0.80763  0.94993  1.0000
  H   H13       1.0  0.01858  0.85900  0.00929  1.0000
  H   H14       1.0  0.02175  0.92534  0.07107  1.0000
  H   H15       1.0  0.97091  0.95307  0.07937  1.0000
  H   H16       1.0  0.07007  0.94722  0.01276  1.0000
  H   H17       1.0  0.03656  0.97169  0.97080  1.0000
  H   H18       1.0  0.06875  0.04684  0.98980  1.0000
  H   H19       1.0  0.10897  0.00829  0.97236  1.0000
  H   H20       1.0  0.18488  0.09698  0.04892  1.0000
  H   H21       1.0  0.22643  0.14593  0.99599  1.0000
  H   H22       1.0  0.24561  0.03535  0.90743  1.0000
  H   H23       1.0  0.20442  0.98545  0.95957  1.0000
  H   H24       1.0  0.08942  0.97829  0.09384  1.0000
  H   H25       1.0  0.09052  0.03547  0.10927  1.0000
  H   H26       1.0  0.01262  0.01113  0.10315  1.0000
  H   H27       1.0  0.02474  0.05055  0.06212  1.0000
