data_image0
_chemical_formula_structural       C3OC3NC2NC5NCONC8H30
_chemical_formula_sum              "C22 O2 N4 H30"
_cell_length_a       30
_cell_length_b       30
_cell_length_c       30
_cell_angle_alpha    90
_cell_angle_beta     90
_cell_angle_gamma    90

_space_group_name_H-M_alt    "P 1"
_space_group_IT_number       1

loop_
  _space_group_symop_operation_xyz
  'x, y, z'

loop_
  _atom_site_type_symbol
  _atom_site_label
  _atom_site_symmetry_multiplicity
  _atom_site_fract_x
  _atom_site_fract_y
  _atom_site_fract_z
  _atom_site_occupancy
  C   C1        1.0  0.96399  0.05486  0.04483  1.0000
  C   C2        1.0  0.94165  0.00924  0.03883  1.0000
  C   C3        1.0  0.89832  0.00895  0.06671  1.0000
  O   O1        1.0  0.86546  0.03615  0.04545  1.0000
  C   C4        1.0  0.82160  0.01832  0.04869  1.0000
  C   C5        1.0  0.79980  0.01826  0.00269  1.0000
  C   C6        1.0  0.83021  0.00342  0.96442  1.0000
  N   N1        1.0  0.85548  0.96318  0.97314  1.0000
  C   C7        1.0  0.83767  0.92112  0.97223  1.0000
  C   C8        1.0  0.87190  0.89325  0.98414  1.0000
  N   N2        1.0  0.90997  0.91704  0.99205  1.0000
  C   C9        1.0  0.90001  0.95925  0.98435  1.0000
  C   C10       1.0  0.93278  0.99790  0.98858  1.0000
  C   C11       1.0  0.97447  0.98715  0.95887  1.0000
  C   C12       1.0  0.00903  0.95512  0.97944  1.0000
  C   C13       1.0  0.05180  0.97772  0.99504  1.0000
  N   N3        1.0  0.07187  0.00689  0.96146  1.0000
  C   C14       1.0  0.11713  0.01786  0.95968  1.0000
  O   O2        1.0  0.13349  0.03518  0.92638  1.0000
  N   N4        1.0  0.14026  0.00811  0.99817  1.0000
  C   C15       1.0  0.18657  0.01136  0.00553  1.0000
  C   C16       1.0  0.21778  0.01903  0.97188  1.0000
  C   C17       1.0  0.26326  0.02139  0.98189  1.0000
  C   C18       1.0  0.27793  0.01592  0.02559  1.0000
  C   C19       1.0  0.24713  0.00796  0.05937  1.0000
  C   C20       1.0  0.20169  0.00561  0.04936  1.0000
  C   C21       1.0  0.04390  0.02013  0.92389  1.0000
  C   C22       1.0  0.99616  0.02907  0.93873  1.0000
  H   H1        1.0  0.99823  0.05482  0.03259  1.0000
  H   H2        1.0  0.94554  0.08118  0.02755  1.0000
  H   H3        1.0  0.96582  0.06391  0.08017  1.0000
  H   H4        1.0  0.96362  0.98410  0.05368  1.0000
  H   H5        1.0  0.90407  0.02220  0.10027  1.0000
  H   H6        1.0  0.88718  0.97440  0.07092  1.0000
  H   H7        1.0  0.80236  0.03931  0.07153  1.0000
  H   H8        1.0  0.82110  0.98442  0.06231  1.0000
  H   H9        1.0  0.76993  0.99723  0.00393  1.0000
  H   H10       1.0  0.78824  0.05210  0.99499  1.0000
  H   H11       1.0  0.80997  0.99699  0.93464  1.0000
  H   H12       1.0  0.85304  0.03022  0.95520  1.0000
  H   H13       1.0  0.80323  0.91476  0.96377  1.0000
  H   H14       1.0  0.87115  0.85735  0.98752  1.0000
  H   H15       1.0  0.91744  0.02739  0.97352  1.0000
  H   H16       1.0  0.96139  0.96906  0.92967  1.0000
  H   H17       1.0  0.01834  0.93087  0.95358  1.0000
  H   H18       1.0  0.99493  0.93523  0.00656  1.0000
  H   H19       1.0  0.04554  0.99799  0.02469  1.0000
  H   H20       1.0  0.07594  0.95196  0.00447  1.0000
  H   H21       1.0  0.12148  0.00335  0.02554  1.0000
  H   H22       1.0  0.20778  0.02310  0.93733  1.0000
  H   H23       1.0  0.28714  0.02747  0.95532  1.0000
  H   H24       1.0  0.31329  0.01778  0.03322  1.0000
  H   H25       1.0  0.25843  0.00357  0.09350  1.0000
  H   H26       1.0  0.17836  0.99931  0.07633  1.0000
  H   H27       1.0  0.04508  0.99327  0.89912  1.0000
  H   H28       1.0  0.05744  0.05014  0.90808  1.0000
  H   H29       1.0  0.99622  0.05682  0.96228  1.0000
  H   H30       1.0  0.97636  0.04024  0.91009  1.0000
