data_image0
_chemical_formula_structural       C7SC2NCOC3NC2F2CF2OCH22
_chemical_formula_sum              "C17 S1 N2 O2 F4 H22"
_cell_length_a       30
_cell_length_b       30
_cell_length_c       30
_cell_angle_alpha    90
_cell_angle_beta     90
_cell_angle_gamma    90

_space_group_name_H-M_alt    "P 1"
_space_group_IT_number       1

loop_
  _space_group_symop_operation_xyz
  'x, y, z'

loop_
  _atom_site_type_symbol
  _atom_site_label
  _atom_site_symmetry_multiplicity
  _atom_site_fract_x
  _atom_site_fract_y
  _atom_site_fract_z
  _atom_site_occupancy
  C   C1        1.0  0.90466  0.92589  0.07428  1.0000
  C   C2        1.0  0.90337  0.95956  0.03564  1.0000
  C   C3        1.0  0.86884  0.99654  0.04424  1.0000
  C   C4        1.0  0.85266  0.01831  0.00178  1.0000
  C   C5        1.0  0.87121  0.01776  0.95937  1.0000
  C   C6        1.0  0.84446  0.04284  0.92866  1.0000
  C   C7        1.0  0.80758  0.06158  0.94841  1.0000
  S   S1        1.0  0.80462  0.04930  0.00377  1.0000
  C   C8        1.0  0.91359  0.99417  0.94619  1.0000
  C   C9        1.0  0.95151  0.00038  0.97995  1.0000
  N   N1        1.0  0.94805  0.97711  0.02313  1.0000
  C   C10       1.0  0.97639  0.99120  0.05749  1.0000
  O   O1        1.0  0.96253  0.99864  0.09549  1.0000
  C   C11       1.0  0.02634  0.99539  0.04877  1.0000
  C   C12       1.0  0.04202  0.03817  0.02581  1.0000
  C   C13       1.0  0.09228  0.03665  0.01652  1.0000
  N   N2        1.0  0.10224  0.99535  0.99202  1.0000
  C   C14       1.0  0.15036  0.99045  0.98198  1.0000
  C   C15       1.0  0.17026  0.02425  0.94883  1.0000
  F   F1        1.0  0.17205  0.06536  0.96794  1.0000
  F   F2        1.0  0.14354  0.02793  0.91232  1.0000
  C   C16       1.0  0.21676  0.00969  0.93449  1.0000
  F   F3        1.0  0.24393  0.00431  0.97033  1.0000
  F   F4        1.0  0.23625  0.04100  0.90816  1.0000
  O   O2        1.0  0.09305  0.95924  0.02364  1.0000
  C   C17       1.0  0.04567  0.95376  0.02684  1.0000
  H   H1        1.0  0.90881  0.94186  0.10678  1.0000
  H   H2        1.0  0.87329  0.90723  0.07567  1.0000
  H   H3        1.0  0.93175  0.90184  0.06974  1.0000
  H   H4        1.0  0.89241  0.93913  0.00737  1.0000
  H   H5        1.0  0.88258  0.02226  0.06628  1.0000
  H   H6        1.0  0.83994  0.98197  0.06133  1.0000
  H   H7        1.0  0.85205  0.04704  0.89359  1.0000
  H   H8        1.0  0.78224  0.08201  0.93294  1.0000
  H   H9        1.0  0.92490  0.00799  0.91424  1.0000
  H   H10       1.0  0.90683  0.95879  0.94012  1.0000
  H   H11       1.0  0.95469  0.03608  0.98719  1.0000
  H   H12       1.0  0.98245  0.98940  0.96414  1.0000
  H   H13       1.0  0.04155  0.99653  0.08220  1.0000
  H   H14       1.0  0.03406  0.06712  0.04664  1.0000
  H   H15       1.0  0.02503  0.04352  0.99407  1.0000
  H   H16       1.0  0.11103  0.03844  0.04787  1.0000
  H   H17       1.0  0.10076  0.06600  0.99658  1.0000
  H   H18       1.0  0.15451  0.95708  0.96756  1.0000
  H   H19       1.0  0.16965  0.99139  0.01307  1.0000
  H   H20       1.0  0.21591  0.97843  0.91576  1.0000
  H   H21       1.0  0.03926  0.92433  0.04749  1.0000
  H   H22       1.0  0.03208  0.94674  0.99373  1.0000
