data_image0
_chemical_formula_structural       C4NC2ONC5OC7OH32
_chemical_formula_sum              "C18 N2 O3 H32"
_cell_length_a       30
_cell_length_b       30
_cell_length_c       30
_cell_angle_alpha    90
_cell_angle_beta     90
_cell_angle_gamma    90

_space_group_name_H-M_alt    "P 1"
_space_group_IT_number       1

loop_
  _space_group_symop_operation_xyz
  'x, y, z'

loop_
  _atom_site_type_symbol
  _atom_site_label
  _atom_site_symmetry_multiplicity
  _atom_site_fract_x
  _atom_site_fract_y
  _atom_site_fract_z
  _atom_site_occupancy
  C   C1        1.0  0.11292  0.05020  0.04415  1.0000
  C   C2        1.0  0.14417  0.02388  0.01339  1.0000
  C   C3        1.0  0.15518  0.97804  0.03311  1.0000
  C   C4        1.0  0.11473  0.94659  0.03375  1.0000
  N   N1        1.0  0.08161  0.95623  0.99883  1.0000
  C   C5        1.0  0.05331  0.91651  0.99060  1.0000
  C   C6        1.0  0.00949  0.92872  0.96717  1.0000
  O   O1        1.0  0.98777  0.90118  0.94606  1.0000
  N   N2        1.0  0.99610  0.97211  0.97400  1.0000
  C   C7        1.0  0.95627  0.99116  0.95462  1.0000
  C   C8        1.0  0.91925  0.00162  0.98938  1.0000
  C   C9        1.0  0.93601  0.03649  0.02414  1.0000
  C   C10       1.0  0.94803  0.08120  0.00504  1.0000
  C   C11       1.0  0.99531  0.09379  0.99372  1.0000
  O   O2        1.0  0.97485  0.10782  0.03451  1.0000
  C   C12       1.0  0.90617  0.95789  0.01408  1.0000
  C   C13       1.0  0.86425  0.96205  0.04283  1.0000
  C   C14       1.0  0.82480  0.98028  0.01652  1.0000
  C   C15       1.0  0.83626  0.02364  0.99265  1.0000
  C   C16       1.0  0.87764  0.01832  0.96346  1.0000
  C   C17       1.0  0.10341  0.97212  0.95779  1.0000
  C   C18       1.0  0.12646  0.01774  0.96533  1.0000
  O   O3        1.0  0.09723  0.05315  0.95279  1.0000
  H   H1        1.0  0.07969  0.03532  0.04622  1.0000
  H   H2        1.0  0.12658  0.05174  0.07798  1.0000
  H   H3        1.0  0.10910  0.08459  0.03254  1.0000
  H   H4        1.0  0.17519  0.04321  0.01142  1.0000
  H   H5        1.0  0.18166  0.96283  0.01292  1.0000
  H   H6        1.0  0.16869  0.98140  0.06690  1.0000
  H   H7        1.0  0.09808  0.94924  0.06619  1.0000
  H   H8        1.0  0.12727  0.91231  0.03107  1.0000
  H   H9        1.0  0.07105  0.89156  0.97066  1.0000
  H   H10       1.0  0.04353  0.90127  0.02238  1.0000
  H   H11       1.0  0.01931  0.99200  0.98875  1.0000
  H   H12       1.0  0.96652  0.02144  0.93697  1.0000
  H   H13       1.0  0.94339  0.96825  0.92922  1.0000
  H   H14       1.0  0.91047  0.04245  0.04953  1.0000
  H   H15       1.0  0.96467  0.02276  0.04229  1.0000
  H   H16       1.0  0.92070  0.09826  0.98893  1.0000
  H   H17       1.0  0.00071  0.11875  0.96823  1.0000
  H   H18       1.0  0.02123  0.06886  0.99587  1.0000
  H   H19       1.0  0.93368  0.94646  0.03529  1.0000
  H   H20       1.0  0.90044  0.93140  0.98946  1.0000
  H   H21       1.0  0.87081  0.98353  0.07162  1.0000
  H   H22       1.0  0.85560  0.92921  0.05634  1.0000
  H   H23       1.0  0.79647  0.98566  0.03894  1.0000
  H   H24       1.0  0.81421  0.95539  0.99192  1.0000
  H   H25       1.0  0.84127  0.05035  0.01703  1.0000
  H   H26       1.0  0.80799  0.03376  0.97183  1.0000
  H   H27       1.0  0.88459  0.04980  0.94633  1.0000
  H   H28       1.0  0.86963  0.99434  0.93695  1.0000
  H   H29       1.0  0.12822  0.94754  0.94683  1.0000
  H   H30       1.0  0.07917  0.97569  0.93069  1.0000
  H   H31       1.0  0.15478  0.01917  0.94222  1.0000
  H   H32       1.0  0.11405  0.08076  0.95542  1.0000
