data_image0
_chemical_formula_structural       C8OCNCOCNC4H22
_chemical_formula_sum              "C15 O2 N2 H22"
_cell_length_a       30
_cell_length_b       30
_cell_length_c       30
_cell_angle_alpha    90
_cell_angle_beta     90
_cell_angle_gamma    90

_space_group_name_H-M_alt    "P 1"
_space_group_IT_number       1

loop_
  _space_group_symop_operation_xyz
  'x, y, z'

loop_
  _atom_site_type_symbol
  _atom_site_label
  _atom_site_symmetry_multiplicity
  _atom_site_fract_x
  _atom_site_fract_y
  _atom_site_fract_z
  _atom_site_occupancy
  C   C1        1.0  0.85282  0.05654  0.03200  1.0000
  C   C2        1.0  0.88991  0.03420  0.00523  1.0000
  C   C3        1.0  0.87370  0.99054  0.98427  1.0000
  C   C4        1.0  0.91021  0.96918  0.95580  1.0000
  C   C5        1.0  0.95553  0.97080  0.97690  1.0000
  C   C6        1.0  0.96527  0.99579  0.01284  1.0000
  C   C7        1.0  0.00981  0.99681  0.03237  1.0000
  C   C8        1.0  0.03909  0.03000  0.02524  1.0000
  O   O1        1.0  0.08224  0.02812  0.04226  1.0000
  C   C9        1.0  0.10801  0.03317  0.00257  1.0000
  N   N1        1.0  0.08097  0.05858  0.97216  1.0000
  C   C10       1.0  0.03722  0.05937  0.98573  1.0000
  O   O2        1.0  0.00631  0.07877  0.96854  1.0000
  C   C11       1.0  0.12249  0.98576  0.98549  1.0000
  N   N2        1.0  0.13638  0.98627  0.93819  1.0000
  C   C12       1.0  0.08833  0.94699  0.99176  1.0000
  C   C13       1.0  0.07333  0.93763  0.04032  1.0000
  C   C14       1.0  0.02595  0.95393  0.05391  1.0000
  C   C15       1.0  0.93095  0.02554  0.03479  1.0000
  H   H1        1.0  0.86443  0.08798  0.04643  1.0000
  H   H2        1.0  0.82414  0.06394  0.01066  1.0000
  H   H3        1.0  0.84135  0.03513  0.05926  1.0000
  H   H4        1.0  0.89959  0.05706  0.97829  1.0000
  H   H5        1.0  0.84415  0.99640  0.96358  1.0000
  H   H6        1.0  0.86364  0.96720  0.01061  1.0000
  H   H7        1.0  0.91205  0.98615  0.92348  1.0000
  H   H8        1.0  0.90122  0.93441  0.94909  1.0000
  H   H9        1.0  0.98105  0.95058  0.96104  1.0000
  H   H10       1.0  0.13766  0.05318  0.00998  1.0000
  H   H11       1.0  0.09189  0.07688  0.94615  1.0000
  H   H12       1.0  0.15180  0.97632  0.00527  1.0000
  H   H13       1.0  0.10943  0.99468  0.91911  1.0000
  H   H14       1.0  0.15941  0.01071  0.93315  1.0000
  H   H15       1.0  0.05954  0.95151  0.96977  1.0000
  H   H16       1.0  0.10473  0.91643  0.97990  1.0000
  H   H17       1.0  0.07363  0.90135  0.04537  1.0000
  H   H18       1.0  0.09816  0.95043  0.06392  1.0000
  H   H19       1.0  0.00288  0.92673  0.04565  1.0000
  H   H20       1.0  0.02432  0.95733  0.09030  1.0000
  H   H21       1.0  0.92066  0.00980  0.06620  1.0000
  H   H22       1.0  0.94574  0.05784  0.04355  1.0000
