data_image0
_chemical_formula_structural       C2NC4NC2NCO2C3H17
_chemical_formula_sum              "C12 N3 O2 H17"
_cell_length_a       30
_cell_length_b       30
_cell_length_c       30
_cell_angle_alpha    90
_cell_angle_beta     90
_cell_angle_gamma    90

_space_group_name_H-M_alt    "P 1"
_space_group_IT_number       1

loop_
  _space_group_symop_operation_xyz
  'x, y, z'

loop_
  _atom_site_type_symbol
  _atom_site_label
  _atom_site_symmetry_multiplicity
  _atom_site_fract_x
  _atom_site_fract_y
  _atom_site_fract_z
  _atom_site_occupancy
  C   C1        1.0  0.11449  0.98903  0.02045  1.0000
  C   C2        1.0  0.09022  0.00282  0.97798  1.0000
  N   N1        1.0  0.06630  0.96571  0.95703  1.0000
  C   C3        1.0  0.02553  0.95198  0.97349  1.0000
  C   C4        1.0  0.98965  0.94494  0.94735  1.0000
  C   C5        1.0  0.94445  0.93858  0.96306  1.0000
  C   C6        1.0  0.91955  0.96821  0.98643  1.0000
  N   N2        1.0  0.87627  0.95620  0.99870  1.0000
  C   C7        1.0  0.93606  0.01600  0.00016  1.0000
  C   C8        1.0  0.90783  0.03946  0.03575  1.0000
  N   N3        1.0  0.98291  0.01551  0.01397  1.0000
  C   C9        1.0  0.99579  0.98014  0.04081  1.0000
  O   O1        1.0  0.98219  0.97479  0.07907  1.0000
  O   O2        1.0  0.02275  0.94933  0.02037  1.0000
  C   C10       1.0  0.01316  0.04900  0.99655  1.0000
  C   C11       1.0  0.05059  0.06677  0.02492  1.0000
  C   C12       1.0  0.06151  0.04428  0.98112  1.0000
  H   H1        1.0  0.09210  0.98123  0.04808  1.0000
  H   H2        1.0  0.13648  0.01590  0.03180  1.0000
  H   H3        1.0  0.13512  0.95949  0.01448  1.0000
  H   H4        1.0  0.11705  0.01128  0.95451  1.0000
  H   H5        1.0  0.06533  0.96943  0.92336  1.0000
  H   H6        1.0  0.99308  0.94604  0.91132  1.0000
  H   H7        1.0  0.92999  0.90682  0.95317  1.0000
  H   H8        1.0  0.87068  0.92279  0.99639  1.0000
  H   H9        1.0  0.86815  0.96683  0.02994  1.0000
  H   H10       1.0  0.93356  0.03613  0.96967  1.0000
  H   H11       1.0  0.90700  0.02073  0.06707  1.0000
  H   H12       1.0  0.92149  0.07251  0.04321  1.0000
  H   H13       1.0  0.87347  0.04416  0.02434  1.0000
  H   H14       1.0  0.99479  0.07472  0.97853  1.0000
  H   H15       1.0  0.05748  0.05012  0.05622  1.0000
  H   H16       1.0  0.05454  0.10266  0.02694  1.0000
  H   H17       1.0  0.07044  0.06639  0.95373  1.0000
