data_image0
_chemical_formula_structural       C2NC2OC7NC2NC6NH34
_chemical_formula_sum              "C19 N4 O1 H34"
_cell_length_a       30
_cell_length_b       30
_cell_length_c       30
_cell_angle_alpha    90
_cell_angle_beta     90
_cell_angle_gamma    90

_space_group_name_H-M_alt    "P 1"
_space_group_IT_number       1

loop_
  _space_group_symop_operation_xyz
  'x, y, z'

loop_
  _atom_site_type_symbol
  _atom_site_label
  _atom_site_symmetry_multiplicity
  _atom_site_fract_x
  _atom_site_fract_y
  _atom_site_fract_z
  _atom_site_occupancy
  C   C1        1.0  0.03297  0.02646  0.07379  1.0000
  C   C2        1.0  0.00835  0.01769  0.02943  1.0000
  N   N1        1.0  0.96426  0.00149  0.04060  1.0000
  C   C3        1.0  0.93020  0.99643  0.00524  1.0000
  C   C4        1.0  0.94308  0.00482  0.95528  1.0000
  O   O1        1.0  0.95382  0.04988  0.94551  1.0000
  C   C5        1.0  0.88851  0.02633  0.01892  1.0000
  C   C6        1.0  0.89821  0.07651  0.02331  1.0000
  C   C7        1.0  0.84771  0.02043  0.98849  1.0000
  C   C8        1.0  0.91634  0.94634  0.00942  1.0000
  C   C9        1.0  0.95202  0.91300  0.02506  1.0000
  C   C10       1.0  0.99530  0.91044  0.99821  1.0000
  C   C11       1.0  0.03513  0.94043  0.01378  1.0000
  N   N2        1.0  0.07856  0.92044  0.00028  1.0000
  C   C12       1.0  0.09500  0.88843  0.03317  1.0000
  C   C13       1.0  0.07939  0.90076  0.95559  1.0000
  N   N3        1.0  0.03174  0.98758  0.99851  1.0000
  C   C14       1.0  0.07513  0.00728  0.98447  1.0000
  C   C15       1.0  0.07434  0.05529  0.96737  1.0000
  C   C16       1.0  0.10426  0.08646  0.98465  1.0000
  C   C17       1.0  0.10377  0.12983  0.96816  1.0000
  C   C18       1.0  0.07389  0.14105  0.93464  1.0000
  C   C19       1.0  0.04559  0.10822  0.91890  1.0000
  N   N4        1.0  0.04502  0.06584  0.93445  1.0000
  H   H1        1.0  0.01458  0.05092  0.09386  1.0000
  H   H2        1.0  0.03652  0.99637  0.09415  1.0000
  H   H3        1.0  0.06623  0.04048  0.06858  1.0000
  H   H4        1.0  0.00374  0.05053  0.01428  1.0000
  H   H5        1.0  0.95163  0.01942  0.06643  1.0000
  H   H6        1.0  0.97019  0.98354  0.94361  1.0000
  H   H7        1.0  0.91493  0.99619  0.93367  1.0000
  H   H8        1.0  0.98653  0.05090  0.94381  1.0000
  H   H9        1.0  0.87789  0.01533  0.05228  1.0000
  H   H10       1.0  0.90284  0.09260  0.99093  1.0000
  H   H11       1.0  0.92755  0.08333  0.04381  1.0000
  H   H12       1.0  0.86994  0.09321  0.03936  1.0000
  H   H13       1.0  0.83831  0.98539  0.98504  1.0000
  H   H14       1.0  0.81889  0.03797  0.00249  1.0000
  H   H15       1.0  0.85350  0.03415  0.95519  1.0000
  H   H16       1.0  0.88884  0.94318  0.03342  1.0000
  H   H17       1.0  0.90280  0.93442  0.97756  1.0000
  H   H18       1.0  0.93622  0.87998  0.02333  1.0000
  H   H19       1.0  0.95947  0.91780  0.06053  1.0000
  H   H20       1.0  0.98849  0.91483  0.96259  1.0000
  H   H21       1.0  0.00573  0.87552  0.00175  1.0000
  H   H22       1.0  0.03504  0.94035  0.05028  1.0000
  H   H23       1.0  0.07298  0.85955  0.03684  1.0000
  H   H24       1.0  0.12820  0.87633  0.02385  1.0000
  H   H25       1.0  0.09878  0.90429  0.06586  1.0000
  H   H26       1.0  0.06462  0.92292  0.93062  1.0000
  H   H27       1.0  0.06216  0.86861  0.95382  1.0000
  H   H28       1.0  0.11400  0.89518  0.94529  1.0000
  H   H29       1.0  0.09960  0.00470  0.01156  1.0000
  H   H30       1.0  0.08866  0.98886  0.95602  1.0000
  H   H31       1.0  0.12772  0.07729  0.01062  1.0000
  H   H32       1.0  0.12662  0.15466  0.98131  1.0000
  H   H33       1.0  0.07264  0.17451  0.92108  1.0000
  H   H34       1.0  0.02155  0.11526  0.89271  1.0000
