data_image0
_chemical_formula_structural       C2NCSNC4NCONC6OC2H24
_chemical_formula_sum              "C16 N4 S1 O2 H24"
_cell_length_a       30
_cell_length_b       30
_cell_length_c       30
_cell_angle_alpha    90
_cell_angle_beta     90
_cell_angle_gamma    90

_space_group_name_H-M_alt    "P 1"
_space_group_IT_number       1

loop_
  _space_group_symop_operation_xyz
  'x, y, z'

loop_
  _atom_site_type_symbol
  _atom_site_label
  _atom_site_symmetry_multiplicity
  _atom_site_fract_x
  _atom_site_fract_y
  _atom_site_fract_z
  _atom_site_occupancy
  C   C1        1.0  0.80420  0.03436  0.99164  1.0000
  C   C2        1.0  0.82269  0.01054  0.95046  1.0000
  N   N1        1.0  0.83491  0.04298  0.91658  1.0000
  C   C3        1.0  0.87500  0.06410  0.91734  1.0000
  S   S1        1.0  0.88438  0.10880  0.88605  1.0000
  N   N2        1.0  0.90699  0.04755  0.94508  1.0000
  C   C4        1.0  0.90443  0.00852  0.96959  1.0000
  C   C5        1.0  0.93670  0.99677  0.99861  1.0000
  C   C6        1.0  0.97621  0.02213  0.01046  1.0000
  C   C7        1.0  0.00928  0.00820  0.03695  1.0000
  N   N3        1.0  0.01331  0.96783  0.05673  1.0000
  C   C8        1.0  0.05305  0.96568  0.07936  1.0000
  O   O1        1.0  0.06857  0.93226  0.09656  1.0000
  N   N4        1.0  0.07192  0.00815  0.07728  1.0000
  C   C9        1.0  0.11954  0.01612  0.07470  1.0000
  C   C10       1.0  0.13993  0.00711  0.02878  1.0000
  C   C11       1.0  0.18934  0.01942  0.02707  1.0000
  C   C12       1.0  0.20647  0.99613  0.98530  1.0000
  C   C13       1.0  0.17574  0.95615  0.97797  1.0000
  C   C14       1.0  0.14082  0.95813  0.01490  1.0000
  O   O2        1.0  0.04596  0.03463  0.04713  1.0000
  C   C15       1.0  0.86313  0.97997  0.96003  1.0000
  C   C16       1.0  0.85175  0.94422  0.99474  1.0000
  H   H1        1.0  0.79115  0.01056  0.01602  1.0000
  H   H2        1.0  0.77673  0.05655  0.98227  1.0000
  H   H3        1.0  0.82947  0.05489  0.00813  1.0000
  H   H4        1.0  0.79581  0.99052  0.93586  1.0000
  H   H5        1.0  0.81077  0.05750  0.89791  1.0000
  H   H6        1.0  0.93535  0.06582  0.94586  1.0000
  H   H7        1.0  0.93330  0.96519  0.01599  1.0000
  H   H8        1.0  0.97921  0.05579  0.99749  1.0000
  H   H9        1.0  0.99339  0.94117  0.05274  1.0000
  H   H10       1.0  0.12482  0.05108  0.08386  1.0000
  H   H11       1.0  0.13570  0.99534  0.10004  1.0000
  H   H12       1.0  0.12206  0.02636  0.00329  1.0000
  H   H13       1.0  0.19463  0.05548  0.02576  1.0000
  H   H14       1.0  0.20693  0.00655  0.05642  1.0000
  H   H15       1.0  0.24133  0.98605  0.98900  1.0000
  H   H16       1.0  0.20459  0.01860  0.95658  1.0000
  H   H17       1.0  0.15985  0.95864  0.94516  1.0000
  H   H18       1.0  0.19408  0.92463  0.97885  1.0000
  H   H19       1.0  0.10839  0.94626  0.00320  1.0000
  H   H20       1.0  0.15123  0.93690  0.04278  1.0000
  H   H21       1.0  0.87050  0.96214  0.92880  1.0000
  H   H22       1.0  0.87723  0.91807  0.99536  1.0000
  H   H23       1.0  0.84913  0.95814  0.02837  1.0000
  H   H24       1.0  0.82004  0.92802  0.98666  1.0000
