data_image0
_chemical_formula_structural       C2OCOC7NC5NC6H30
_chemical_formula_sum              "C21 O2 N2 H30"
_cell_length_a       30
_cell_length_b       30
_cell_length_c       30
_cell_angle_alpha    90
_cell_angle_beta     90
_cell_angle_gamma    90

_space_group_name_H-M_alt    "P 1"
_space_group_IT_number       1

loop_
  _space_group_symop_operation_xyz
  'x, y, z'

loop_
  _atom_site_type_symbol
  _atom_site_label
  _atom_site_symmetry_multiplicity
  _atom_site_fract_x
  _atom_site_fract_y
  _atom_site_fract_z
  _atom_site_occupancy
  C   C1        1.0  0.94700  0.96721  0.10354  1.0000
  C   C2        1.0  0.94528  0.99957  0.06432  1.0000
  O   O1        1.0  0.90336  0.99330  0.04207  1.0000
  C   C3        1.0  0.88035  0.03084  0.03213  1.0000
  O   O2        1.0  0.88659  0.06815  0.04727  1.0000
  C   C4        1.0  0.84743  0.02265  0.99559  1.0000
  C   C5        1.0  0.86416  0.03277  0.94874  1.0000
  C   C6        1.0  0.88292  0.99261  0.92355  1.0000
  C   C7        1.0  0.92376  0.96911  0.94333  1.0000
  C   C8        1.0  0.96676  0.99661  0.94422  1.0000
  C   C9        1.0  0.97968  0.02076  0.98760  1.0000
  C   C10       1.0  0.98495  0.99354  0.03123  1.0000
  N   N1        1.0  0.99219  0.94606  0.02154  1.0000
  C   C11       1.0  0.03107  0.93034  0.01238  1.0000
  C   C12       1.0  0.07389  0.95406  0.01096  1.0000
  C   C13       1.0  0.09634  0.95726  0.97056  1.0000
  C   C14       1.0  0.13770  0.97888  0.96878  1.0000
  C   C15       1.0  0.15752  0.99772  0.00693  1.0000
  N   N2        1.0  0.19903  0.01930  0.00593  1.0000
  C   C16       1.0  0.22463  0.01905  0.96446  1.0000
  C   C17       1.0  0.20192  0.06087  0.03150  1.0000
  C   C18       1.0  0.13426  0.99250  0.04742  1.0000
  C   C19       1.0  0.09293  0.97096  0.04969  1.0000
  C   C20       1.0  0.81220  0.98660  0.00199  1.0000
  C   C21       1.0  0.79903  0.03451  0.00597  1.0000
  H   H1        1.0  0.92039  0.97499  0.12727  1.0000
  H   H2        1.0  0.94134  0.93279  0.09279  1.0000
  H   H3        1.0  0.97896  0.96909  0.12098  1.0000
  H   H4        1.0  0.94767  0.03336  0.07816  1.0000
  H   H5        1.0  0.88926  0.05928  0.95014  1.0000
  H   H6        1.0  0.83672  0.04647  0.92878  1.0000
  H   H7        1.0  0.89114  0.00342  0.88956  1.0000
  H   H8        1.0  0.85651  0.96759  0.91979  1.0000
  H   H9        1.0  0.91589  0.95435  0.97555  1.0000
  H   H10       1.0  0.93019  0.94043  0.92143  1.0000
  H   H11       1.0  0.96595  0.02129  0.91721  1.0000
  H   H12       1.0  0.99435  0.97421  0.93553  1.0000
  H   H13       1.0  0.95783  0.04945  0.99292  1.0000
  H   H14       1.0  0.01243  0.03578  0.98089  1.0000
  H   H15       1.0  0.01354  0.00728  0.04930  1.0000
  H   H16       1.0  0.03311  0.89469  0.00346  1.0000
  H   H17       1.0  0.08191  0.94379  0.94013  1.0000
  H   H18       1.0  0.15373  0.98115  0.93636  1.0000
  H   H19       1.0  0.20812  0.03863  0.93839  1.0000
  H   H20       1.0  0.22999  0.98485  0.95263  1.0000
  H   H21       1.0  0.25787  0.03329  0.96981  1.0000
  H   H22       1.0  0.17643  0.08468  0.02066  1.0000
  H   H23       1.0  0.23451  0.07674  0.02686  1.0000
  H   H24       1.0  0.19860  0.05511  0.06736  1.0000
  H   H25       1.0  0.14874  0.00420  0.07853  1.0000
  H   H26       1.0  0.07640  0.96701  0.08169  1.0000
  H   H27       1.0  0.80017  0.96831  0.97325  1.0000
  H   H28       1.0  0.81368  0.96669  0.03214  1.0000
  H   H29       1.0  0.79121  0.04719  0.03892  1.0000
  H   H30       1.0  0.77842  0.04866  0.97988  1.0000
