data_image0
_chemical_formula_structural       C2OCOCNC2OC5NH18
_chemical_formula_sum              "C11 O3 N2 H18"
_cell_length_a       30
_cell_length_b       30
_cell_length_c       30
_cell_angle_alpha    90
_cell_angle_beta     90
_cell_angle_gamma    90

_space_group_name_H-M_alt    "P 1"
_space_group_IT_number       1

loop_
  _space_group_symop_operation_xyz
  'x, y, z'

loop_
  _atom_site_type_symbol
  _atom_site_label
  _atom_site_symmetry_multiplicity
  _atom_site_fract_x
  _atom_site_fract_y
  _atom_site_fract_z
  _atom_site_occupancy
  C   C1        1.0  0.96945  0.08934  0.97131  1.0000
  C   C2        1.0  0.98576  0.04605  0.99276  1.0000
  O   O1        1.0  0.99901  0.05730  0.03768  1.0000
  C   C3        1.0  0.02996  0.03778  0.06382  1.0000
  O   O2        1.0  0.03370  0.05069  0.10269  1.0000
  C   C4        1.0  0.05748  0.99740  0.04860  1.0000
  N   N1        1.0  0.06883  0.99027  0.00174  1.0000
  C   C5        1.0  0.10343  0.01969  0.98420  1.0000
  C   C6        1.0  0.04954  0.95941  0.97328  1.0000
  O   O3        1.0  0.05928  0.95812  0.93332  1.0000
  C   C7        1.0  0.01491  0.92702  0.99063  1.0000
  C   C8        1.0  0.96590  0.94141  0.98799  1.0000
  C   C9        1.0  0.95062  0.97755  0.95405  1.0000
  C   C10       1.0  0.94766  0.01185  0.99291  1.0000
  C   C11       1.0  0.94880  0.97192  0.02584  1.0000
  N   N2        1.0  0.90296  0.95882  0.03673  1.0000
  H   H1        1.0  0.99628  0.11410  0.97072  1.0000
  H   H2        1.0  0.94203  0.10404  0.99046  1.0000
  H   H3        1.0  0.95795  0.08369  0.93715  1.0000
  H   H4        1.0  0.01413  0.03559  0.97304  1.0000
  H   H5        1.0  0.04099  0.96798  0.06211  1.0000
  H   H6        1.0  0.08948  0.99967  0.06625  1.0000
  H   H7        1.0  0.09334  0.05435  0.98932  1.0000
  H   H8        1.0  0.13439  0.01334  0.00241  1.0000
  H   H9        1.0  0.10962  0.01447  0.94870  1.0000
  H   H10       1.0  0.02332  0.91511  0.02404  1.0000
  H   H11       1.0  0.01879  0.89716  0.96970  1.0000
  H   H12       1.0  0.94639  0.91051  0.98456  1.0000
  H   H13       1.0  0.97364  0.98539  0.92691  1.0000
  H   H14       1.0  0.91812  0.97023  0.93894  1.0000
  H   H15       1.0  0.91553  0.02950  0.99382  1.0000
  H   H16       1.0  0.96939  0.97463  0.05552  1.0000
  H   H17       1.0  0.88183  0.95575  0.01027  1.0000
  H   H18       1.0  0.88751  0.97989  0.05852  1.0000
