data_image0
_chemical_formula_structural       C4NC3NCOC6OCOH18
_chemical_formula_sum              "C15 N2 O3 H18"
_cell_length_a       30
_cell_length_b       30
_cell_length_c       30
_cell_angle_alpha    90
_cell_angle_beta     90
_cell_angle_gamma    90

_space_group_name_H-M_alt    "P 1"
_space_group_IT_number       1

loop_
  _space_group_symop_operation_xyz
  'x, y, z'

loop_
  _atom_site_type_symbol
  _atom_site_label
  _atom_site_symmetry_multiplicity
  _atom_site_fract_x
  _atom_site_fract_y
  _atom_site_fract_z
  _atom_site_occupancy
  C   C1        1.0  0.88142  0.04722  0.93630  1.0000
  C   C2        1.0  0.86899  0.02410  0.97872  1.0000
  C   C3        1.0  0.89669  0.01083  0.01142  1.0000
  C   C4        1.0  0.88219  0.98885  0.05370  1.0000
  N   N1        1.0  0.88497  0.94048  0.05335  1.0000
  C   C5        1.0  0.92651  0.92027  0.03801  1.0000
  C   C6        1.0  0.96953  0.94688  0.04480  1.0000
  C   C7        1.0  0.97750  0.98124  0.00781  1.0000
  N   N2        1.0  0.02278  0.99885  0.01015  1.0000
  C   C8        1.0  0.05913  0.97616  0.99408  1.0000
  O   O1        1.0  0.05632  0.93790  0.97978  1.0000
  C   C9        1.0  0.10303  0.99997  0.99438  1.0000
  C   C10       1.0  0.14045  0.97572  0.98004  1.0000
  C   C11       1.0  0.18269  0.99529  0.97910  1.0000
  C   C12       1.0  0.18808  0.03940  0.99246  1.0000
  C   C13       1.0  0.15132  0.06404  0.00675  1.0000
  C   C14       1.0  0.10902  0.04444  0.00769  1.0000
  O   O2        1.0  0.07363  0.06962  0.02178  1.0000
  C   C15       1.0  0.94529  0.02097  0.00970  1.0000
  O   O3        1.0  0.95784  0.06010  0.00887  1.0000
  H   H1        1.0  0.86753  0.08095  0.93607  1.0000
  H   H2        1.0  0.91739  0.04955  0.93108  1.0000
  H   H3        1.0  0.86743  0.02897  0.90796  1.0000
  H   H4        1.0  0.83350  0.01753  0.98251  1.0000
  H   H5        1.0  0.84755  0.99802  0.06110  1.0000
  H   H6        1.0  0.90126  0.00209  0.08197  1.0000
  H   H7        1.0  0.85866  0.92715  0.03646  1.0000
  H   H8        1.0  0.92316  0.91147  0.00267  1.0000
  H   H9        1.0  0.92981  0.88855  0.05586  1.0000
  H   H10       1.0  0.97010  0.96265  0.07780  1.0000
  H   H11       1.0  0.99718  0.92292  0.04496  1.0000
  H   H12       1.0  0.97376  0.96569  0.97492  1.0000
  H   H13       1.0  0.02657  0.03186  0.01762  1.0000
  H   H14       1.0  0.13678  0.94119  0.96947  1.0000
  H   H15       1.0  0.21126  0.97599  0.96792  1.0000
  H   H16       1.0  0.22097  0.05461  0.99174  1.0000
  H   H17       1.0  0.15629  0.09839  0.01706  1.0000
  H   H18       1.0  0.08343  0.10005  0.02720  1.0000
