data_image0
_chemical_formula_structural       C6NC2FSC4FNCOC2NCH19
_chemical_formula_sum              "C16 N3 F2 S1 O1 H19"
_cell_length_a       30
_cell_length_b       30
_cell_length_c       30
_cell_angle_alpha    90
_cell_angle_beta     90
_cell_angle_gamma    90

_space_group_name_H-M_alt    "P 1"
_space_group_IT_number       1

loop_
  _space_group_symop_operation_xyz
  'x, y, z'

loop_
  _atom_site_type_symbol
  _atom_site_label
  _atom_site_symmetry_multiplicity
  _atom_site_fract_x
  _atom_site_fract_y
  _atom_site_fract_z
  _atom_site_occupancy
  C   C1        1.0  0.19172  0.06906  0.94781  1.0000
  C   C2        1.0  0.14422  0.08078  0.95697  1.0000
  C   C3        1.0  0.11484  0.05271  0.97558  1.0000
  C   C4        1.0  0.06891  0.06447  0.98393  1.0000
  C   C5        1.0  0.04039  0.03694  0.00270  1.0000
  C   C6        1.0  0.99803  0.02663  0.01883  1.0000
  N   N1        1.0  0.95793  0.03463  0.02728  1.0000
  C   C7        1.0  0.93487  0.00160  0.04958  1.0000
  C   C8        1.0  0.94392  0.99386  0.09935  1.0000
  F   F1        1.0  0.91340  0.96569  0.11785  1.0000
  S   S1        1.0  0.94382  0.04505  0.13197  1.0000
  C   C9        1.0  0.88642  0.06143  0.12309  1.0000
  C   C10       1.0  0.90221  0.97857  0.02911  1.0000
  C   C11       1.0  0.88884  0.98386  0.98309  1.0000
  C   C12       1.0  0.89745  0.95510  0.94998  1.0000
  F   F2        1.0  0.87729  0.96245  0.91037  1.0000
  N   N2        1.0  0.92324  0.91733  0.95357  1.0000
  C   C13       1.0  0.96352  0.91702  0.97583  1.0000
  O   O1        1.0  0.97206  0.88923  0.00480  1.0000
  C   C14       1.0  0.99945  0.94954  0.95790  1.0000
  C   C15       1.0  0.02016  0.92933  0.91594  1.0000
  N   N3        1.0  0.03525  0.95464  0.99140  1.0000
  C   C16       1.0  0.03276  0.99284  0.02239  1.0000
  H   H1        1.0  0.21386  0.09100  0.96680  1.0000
  H   H2        1.0  0.19882  0.07343  0.91232  1.0000
  H   H3        1.0  0.19944  0.03462  0.95686  1.0000
  H   H4        1.0  0.13403  0.11425  0.94734  1.0000
  H   H5        1.0  0.12529  0.01923  0.98512  1.0000
  H   H6        1.0  0.05755  0.09750  0.97421  1.0000
  H   H7        1.0  0.97656  0.97812  0.10347  1.0000
  H   H8        1.0  0.88077  0.07141  0.08837  1.0000
  H   H9        1.0  0.86370  0.03429  0.13212  1.0000
  H   H10       1.0  0.87904  0.08990  0.14445  1.0000
  H   H11       1.0  0.88347  0.95350  0.04767  1.0000
  H   H12       1.0  0.86770  0.01251  0.97604  1.0000
  H   H13       1.0  0.92422  0.90024  0.92431  1.0000
  H   H14       1.0  0.98451  0.98146  0.94862  1.0000
  H   H15       1.0  0.03452  0.89633  0.92257  1.0000
  H   H16       1.0  0.99495  0.92507  0.88978  1.0000
  H   H17       1.0  0.04639  0.95085  0.90244  1.0000
  H   H18       1.0  0.03633  0.92523  0.00900  1.0000
  H   H19       1.0  0.04812  0.98831  0.05482  1.0000
