data_image0
_chemical_formula_structural       C5ONC2NCOC4SC4H22
_chemical_formula_sum              "C16 O2 N2 S1 H22"
_cell_length_a       30
_cell_length_b       30
_cell_length_c       30
_cell_angle_alpha    90
_cell_angle_beta     90
_cell_angle_gamma    90

_space_group_name_H-M_alt    "P 1"
_space_group_IT_number       1

loop_
  _space_group_symop_operation_xyz
  'x, y, z'

loop_
  _atom_site_type_symbol
  _atom_site_label
  _atom_site_symmetry_multiplicity
  _atom_site_fract_x
  _atom_site_fract_y
  _atom_site_fract_z
  _atom_site_occupancy
  C   C1        1.0  0.21277  0.00081  0.00781  1.0000
  C   C2        1.0  0.16862  0.99815  0.03069  1.0000
  C   C3        1.0  0.13712  0.03004  0.03278  1.0000
  C   C4        1.0  0.13891  0.07648  0.01490  1.0000
  C   C5        1.0  0.09617  0.01951  0.05899  1.0000
  O   O1        1.0  0.09245  0.03438  0.09694  1.0000
  N   N1        1.0  0.06416  0.99356  0.03824  1.0000
  C   C6        1.0  0.02289  0.98349  0.06227  1.0000
  C   C7        1.0  0.98159  0.99035  0.03288  1.0000
  N   N2        1.0  0.98423  0.96664  0.99007  1.0000
  C   C8        1.0  0.94852  0.96092  0.96123  1.0000
  O   O2        1.0  0.95202  0.93984  0.92621  1.0000
  C   C9        1.0  0.90464  0.98199  0.97515  1.0000
  C   C10       1.0  0.86907  0.97687  0.93905  1.0000
  C   C11       1.0  0.82581  0.99832  0.95236  1.0000
  C   C12       1.0  0.79184  0.97705  0.97512  1.0000
  S   S1        1.0  0.74731  0.01113  0.98531  1.0000
  C   C13       1.0  0.77260  0.05492  0.95914  1.0000
  C   C14       1.0  0.81413  0.04374  0.94312  1.0000
  C   C15       1.0  0.02781  0.94807  0.97806  1.0000
  C   C16       1.0  0.06635  0.97893  0.99150  1.0000
  H   H1        1.0  0.23959  0.99823  0.03240  1.0000
  H   H2        1.0  0.21608  0.97300  0.98442  1.0000
  H   H3        1.0  0.21753  0.03160  0.98901  1.0000
  H   H4        1.0  0.16237  0.96655  0.04755  1.0000
  H   H5        1.0  0.11299  0.08129  0.98967  1.0000
  H   H6        1.0  0.13338  0.10068  0.04167  1.0000
  H   H7        1.0  0.17090  0.08461  0.99954  1.0000
  H   H8        1.0  0.01990  0.00365  0.09253  1.0000
  H   H9        1.0  0.02514  0.94852  0.07267  1.0000
  H   H10       1.0  0.95175  0.97953  0.05085  1.0000
  H   H11       1.0  0.97779  0.02584  0.02503  1.0000
  H   H12       1.0  0.91018  0.01744  0.98199  1.0000
  H   H13       1.0  0.89322  0.96584  0.00586  1.0000
  H   H14       1.0  0.88077  0.99174  0.90774  1.0000
  H   H15       1.0  0.86335  0.94142  0.93200  1.0000
  H   H16       1.0  0.79095  0.94281  0.98641  1.0000
  H   H17       1.0  0.75581  0.08673  0.95670  1.0000
  H   H18       1.0  0.83527  0.06708  0.92544  1.0000
  H   H19       1.0  0.02961  0.94109  0.94228  1.0000
  H   H20       1.0  0.03070  0.91610  0.99556  1.0000
  H   H21       1.0  0.09807  0.96197  0.98555  1.0000
  H   H22       1.0  0.06565  0.00910  0.97088  1.0000
