data_image0
_chemical_formula_structural       C4OC3NCSC2ONC5OC2SO2C5H28
_chemical_formula_sum              "C22 O5 N2 S2 H28"
_cell_length_a       30
_cell_length_b       30
_cell_length_c       30
_cell_angle_alpha    90
_cell_angle_beta     90
_cell_angle_gamma    90

_space_group_name_H-M_alt    "P 1"
_space_group_IT_number       1

loop_
  _space_group_symop_operation_xyz
  'x, y, z'

loop_
  _atom_site_type_symbol
  _atom_site_label
  _atom_site_symmetry_multiplicity
  _atom_site_fract_x
  _atom_site_fract_y
  _atom_site_fract_z
  _atom_site_occupancy
  C   C1        1.0  0.87906  0.08458  0.87140  1.0000
  C   C2        1.0  0.89084  0.08351  0.92001  1.0000
  C   C3        1.0  0.93192  0.08842  0.93706  1.0000
  C   C4        1.0  0.97746  0.09716  0.91816  1.0000
  O   O1        1.0  0.99217  0.10552  0.88144  1.0000
  C   C5        1.0  0.99515  0.08245  0.95856  1.0000
  C   C6        1.0  0.02724  0.06665  0.98640  1.0000
  C   C7        1.0  0.07290  0.06026  0.97665  1.0000
  N   N1        1.0  0.11026  0.05733  0.96688  1.0000
  C   C8        1.0  0.00201  0.05306  0.02608  1.0000
  S   S1        1.0  0.02693  0.03346  0.07385  1.0000
  C   C9        1.0  0.02964  0.97360  0.06390  1.0000
  C   C10       1.0  0.06796  0.96078  0.03366  1.0000
  O   O2        1.0  0.06179  0.95051  0.99431  1.0000
  N   N2        1.0  0.10889  0.96008  0.05452  1.0000
  C   C11       1.0  0.14834  0.94261  0.03390  1.0000
  C   C12       1.0  0.17093  0.97511  0.00176  1.0000
  C   C13       1.0  0.21907  0.96118  0.99136  1.0000
  C   C14       1.0  0.22850  0.91382  0.00716  1.0000
  C   C15       1.0  0.21663  0.90873  0.05646  1.0000
  O   O3        1.0  0.17804  0.93337  0.06989  1.0000
  C   C16       1.0  0.95767  0.06336  0.02170  1.0000
  C   C17       1.0  0.92085  0.06196  0.05557  1.0000
  S   S2        1.0  0.89576  0.00834  0.06433  1.0000
  O   O4        1.0  0.92795  0.97948  0.08604  1.0000
  O   O5        1.0  0.85356  0.01761  0.08621  1.0000
  C   C18       1.0  0.88445  0.98476  0.01003  1.0000
  C   C19       1.0  0.83466  0.97865  0.00035  1.0000
  C   C20       1.0  0.81507  0.93946  0.02664  1.0000
  C   C21       1.0  0.82767  0.97059  0.95032  1.0000
  C   C22       1.0  0.95215  0.09407  0.98239  1.0000
  H   H1        1.0  0.85850  0.05536  0.86240  1.0000
  H   H2        1.0  0.90830  0.08467  0.84939  1.0000
  H   H3        1.0  0.85935  0.11475  0.86478  1.0000
  H   H4        1.0  0.86318  0.07972  0.94341  1.0000
  H   H5        1.0  0.03471  0.95736  0.09619  1.0000
  H   H6        1.0  0.99896  0.96006  0.05014  1.0000
  H   H7        1.0  0.11287  0.97409  0.08520  1.0000
  H   H8        1.0  0.13937  0.91160  0.01659  1.0000
  H   H9        1.0  0.17179  0.00861  0.01638  1.0000
  H   H10       1.0  0.15145  0.97753  0.97092  1.0000
  H   H11       1.0  0.22566  0.96431  0.95557  1.0000
  H   H12       1.0  0.24218  0.98405  0.00822  1.0000
  H   H13       1.0  0.26307  0.90403  0.00105  1.0000
  H   H14       1.0  0.20783  0.89084  0.98771  1.0000
  H   H15       1.0  0.24443  0.92040  0.07705  1.0000
  H   H16       1.0  0.21120  0.87349  0.06452  1.0000
  H   H17       1.0  0.93245  0.07395  0.08819  1.0000
  H   H18       1.0  0.89320  0.08393  0.04523  1.0000
  H   H19       1.0  0.90232  0.95292  0.00865  1.0000
  H   H20       1.0  0.89989  0.00642  0.98516  1.0000
  H   H21       1.0  0.81713  0.00958  0.00933  1.0000
  H   H22       1.0  0.77859  0.94081  0.02614  1.0000
  H   H23       1.0  0.82564  0.93875  0.06141  1.0000
  H   H24       1.0  0.82514  0.90772  0.01158  1.0000
  H   H25       1.0  0.84155  0.99806  0.93069  1.0000
  H   H26       1.0  0.79211  0.96842  0.94261  1.0000
  H   H27       1.0  0.84349  0.93949  0.93934  1.0000
  H   H28       1.0  0.95010  0.12856  0.99518  1.0000
