data_image0
_chemical_formula_structural       C11NCF3COH14
_chemical_formula_sum              "C13 N1 F3 O1 H14"
_cell_length_a       30
_cell_length_b       30
_cell_length_c       30
_cell_angle_alpha    90
_cell_angle_beta     90
_cell_angle_gamma    90

_space_group_name_H-M_alt    "P 1"
_space_group_IT_number       1

loop_
  _space_group_symop_operation_xyz
  'x, y, z'

loop_
  _atom_site_type_symbol
  _atom_site_label
  _atom_site_symmetry_multiplicity
  _atom_site_fract_x
  _atom_site_fract_y
  _atom_site_fract_z
  _atom_site_occupancy
  C   C1        1.0  0.17194  0.96014  0.94510  1.0000
  C   C2        1.0  0.13587  0.98742  0.92424  1.0000
  C   C3        1.0  0.09604  0.99659  0.94213  1.0000
  C   C4        1.0  0.05557  0.02256  0.92770  1.0000
  C   C5        1.0  0.03393  0.01068  0.97189  1.0000
  C   C6        1.0  0.99414  0.02084  0.98934  1.0000
  C   C7        1.0  0.97382  0.00920  0.03188  1.0000
  C   C8        1.0  0.93157  0.02035  0.03834  1.0000
  C   C9        1.0  0.89286  0.04034  0.02041  1.0000
  C   C10       1.0  0.86706  0.01906  0.98379  1.0000
  C   C11       1.0  0.89514  0.01969  0.06828  1.0000
  N   N1        1.0  0.87448  0.97685  0.07825  1.0000
  C   C12       1.0  0.99921  0.98598  0.06850  1.0000
  F   F1        1.0  0.97574  0.98381  0.10739  1.0000
  F   F2        1.0  0.00890  0.94319  0.05768  1.0000
  F   F3        1.0  0.03771  0.00738  0.07869  1.0000
  C   C13       1.0  0.07381  0.98522  0.98413  1.0000
  O   O1        1.0  0.08474  0.96297  0.01620  1.0000
  H   H1        1.0  0.16279  0.94754  0.97804  1.0000
  H   H2        1.0  0.17972  0.93158  0.92378  1.0000
  H   H3        1.0  0.20216  0.98027  0.94865  1.0000
  H   H4        1.0  0.14316  0.00091  0.89140  1.0000
  H   H5        1.0  0.06107  0.05829  0.92211  1.0000
  H   H6        1.0  0.03850  0.00974  0.89799  1.0000
  H   H7        1.0  0.97303  0.04115  0.96778  1.0000
  H   H8        1.0  0.89223  0.07639  0.01829  1.0000
  H   H9        1.0  0.87179  0.98290  0.98212  1.0000
  H   H10       1.0  0.83143  0.02569  0.98808  1.0000
  H   H11       1.0  0.87724  0.03301  0.95163  1.0000
  H   H12       1.0  0.89641  0.04313  0.09586  1.0000
  H   H13       1.0  0.87852  0.95442  0.05304  1.0000
  H   H14       1.0  0.88941  0.96268  0.10539  1.0000
