data_image0
_chemical_formula_structural       C2SC2NCClCNC2OC9H19
_chemical_formula_sum              "C17 S1 N2 Cl1 O1 H19"
_cell_length_a       30
_cell_length_b       30
_cell_length_c       30
_cell_angle_alpha    90
_cell_angle_beta     90
_cell_angle_gamma    90

_space_group_name_H-M_alt    "P 1"
_space_group_IT_number       1

loop_
  _space_group_symop_operation_xyz
  'x, y, z'

loop_
  _atom_site_type_symbol
  _atom_site_label
  _atom_site_symmetry_multiplicity
  _atom_site_fract_x
  _atom_site_fract_y
  _atom_site_fract_z
  _atom_site_occupancy
  C   C1        1.0  0.17774  0.06966  0.04611  1.0000
  C   C2        1.0  0.13514  0.04724  0.03377  1.0000
  S   S1        1.0  0.13793  0.99296  0.00848  1.0000
  C   C3        1.0  0.15271  0.01339  0.95359  1.0000
  C   C4        1.0  0.07962  0.98547  0.00001  1.0000
  N   N1        1.0  0.05966  0.01867  0.97769  1.0000
  C   C5        1.0  0.01543  0.01382  0.97035  1.0000
  Cl  Cl1       1.0  0.99484  0.05628  0.93744  1.0000
  C   C6        1.0  0.98956  0.97764  0.98512  1.0000
  N   N2        1.0  0.94261  0.97427  0.97642  1.0000
  C   C7        1.0  0.92818  0.93961  0.94888  1.0000
  C   C8        1.0  0.87956  0.92651  0.95089  1.0000
  O   O1        1.0  0.95358  0.91784  0.92488  1.0000
  C   C9        1.0  0.91529  0.00970  0.99314  1.0000
  C   C10       1.0  0.87940  0.02658  0.96839  1.0000
  C   C11       1.0  0.85311  0.06133  0.98493  1.0000
  C   C12       1.0  0.86240  0.07988  0.02642  1.0000
  C   C13       1.0  0.89815  0.06394  0.05129  1.0000
  C   C14       1.0  0.92449  0.02926  0.03473  1.0000
  C   C15       1.0  0.01194  0.94368  0.00875  1.0000
  C   C16       1.0  0.98874  0.90296  0.02653  1.0000
  C   C17       1.0  0.05795  0.94788  0.01573  1.0000
  H   H1        1.0  0.20676  0.04928  0.03792  1.0000
  H   H2        1.0  0.17743  0.07644  0.08191  1.0000
  H   H3        1.0  0.17979  0.10143  0.02838  1.0000
  H   H4        1.0  0.10344  0.06428  0.04086  1.0000
  H   H5        1.0  0.14610  0.98730  0.92902  1.0000
  H   H6        1.0  0.13436  0.04359  0.94472  1.0000
  H   H7        1.0  0.18839  0.02082  0.95335  1.0000
  H   H8        1.0  0.86398  0.93607  0.98238  1.0000
  H   H9        1.0  0.87735  0.89013  0.94870  1.0000
  H   H10       1.0  0.86157  0.94088  0.92268  1.0000
  H   H11       1.0  0.87230  0.01451  0.93500  1.0000
  H   H12       1.0  0.82570  0.07429  0.96507  1.0000
  H   H13       1.0  0.84204  0.10701  0.03918  1.0000
  H   H14       1.0  0.90565  0.07850  0.08362  1.0000
  H   H15       1.0  0.95178  0.01734  0.05540  1.0000
  H   H16       1.0  0.00741  0.88841  0.05435  1.0000
  H   H17       1.0  0.98572  0.87765  0.00045  1.0000
  H   H18       1.0  0.95564  0.91118  0.03947  1.0000
  H   H19       1.0  0.07657  0.92232  0.03335  1.0000
