data_image0
_chemical_formula_structural       C4ONC2NC5BrC3NCOC7OH22
_chemical_formula_sum              "C22 O3 N3 Br1 H22"
_cell_length_a       30
_cell_length_b       30
_cell_length_c       30
_cell_angle_alpha    90
_cell_angle_beta     90
_cell_angle_gamma    90

_space_group_name_H-M_alt    "P 1"
_space_group_IT_number       1

loop_
  _space_group_symop_operation_xyz
  'x, y, z'

loop_
  _atom_site_type_symbol
  _atom_site_label
  _atom_site_symmetry_multiplicity
  _atom_site_fract_x
  _atom_site_fract_y
  _atom_site_fract_z
  _atom_site_occupancy
  C   C1        1.0  0.07121  0.08886  0.93078  1.0000
  C   C2        1.0  0.04769  0.04465  0.93903  1.0000
  C   C3        1.0  0.05474  0.02716  0.98662  1.0000
  C   C4        1.0  0.02803  0.98365  0.99480  1.0000
  O   O1        1.0  0.04714  0.94725  0.99752  1.0000
  N   N1        1.0  0.98184  0.98614  0.99778  1.0000
  C   C5        1.0  0.95582  0.02713  0.00415  1.0000
  C   C6        1.0  0.91205  0.01963  0.03009  1.0000
  N   N2        1.0  0.88443  0.98522  0.00874  1.0000
  C   C7        1.0  0.83873  0.98300  0.01564  1.0000
  C   C8        1.0  0.81094  0.95799  0.98734  1.0000
  C   C9        1.0  0.76474  0.95556  0.99362  1.0000
  C   C10       1.0  0.74489  0.97838  0.02869  1.0000
  C   C11       1.0  0.77151  0.00346  0.05708  1.0000
  Br  Br1       1.0  0.74505  0.03469  0.10507  1.0000
  C   C12       1.0  0.81766  0.00582  0.05066  1.0000
  C   C13       1.0  0.90802  0.94852  0.98601  1.0000
  C   C14       1.0  0.95673  0.94436  0.00155  1.0000
  N   N3        1.0  0.10126  0.01847  0.99848  1.0000
  C   C15       1.0  0.13241  0.99794  0.97214  1.0000
  O   O2        1.0  0.13065  0.98725  0.93308  1.0000
  C   C16       1.0  0.17162  0.99053  0.00010  1.0000
  C   C17       1.0  0.21248  0.97192  0.98988  1.0000
  C   C18       1.0  0.24382  0.96910  0.02428  1.0000
  C   C19       1.0  0.23366  0.98465  0.06747  1.0000
  C   C20       1.0  0.19200  0.00328  0.07699  1.0000
  C   C21       1.0  0.16171  0.00576  0.04241  1.0000
  C   C22       1.0  0.11614  0.02280  0.04146  1.0000
  O   O3        1.0  0.09651  0.03745  0.07380  1.0000
  H   H1        1.0  0.10741  0.08561  0.93367  1.0000
  H   H2        1.0  0.06002  0.11420  0.95454  1.0000
  H   H3        1.0  0.06378  0.10091  0.89715  1.0000
  H   H4        1.0  0.01209  0.04957  0.93269  1.0000
  H   H5        1.0  0.05851  0.02015  0.91423  1.0000
  H   H6        1.0  0.04294  0.05220  0.01036  1.0000
  H   H7        1.0  0.94795  0.03982  0.97082  1.0000
  H   H8        1.0  0.97569  0.05223  0.02146  1.0000
  H   H9        1.0  0.91963  0.00947  0.06439  1.0000
  H   H10       1.0  0.89446  0.05164  0.03121  1.0000
  H   H11       1.0  0.82485  0.94031  0.95893  1.0000
  H   H12       1.0  0.74446  0.93597  0.97088  1.0000
  H   H13       1.0  0.70906  0.97647  0.03351  1.0000
  H   H14       1.0  0.83715  0.02529  0.07412  1.0000
  H   H15       1.0  0.89171  0.91643  0.99239  1.0000
  H   H16       1.0  0.90728  0.95475  0.94999  1.0000
  H   H17       1.0  0.95779  0.93459  0.03679  1.0000
  H   H18       1.0  0.97340  0.91809  0.98242  1.0000
  H   H19       1.0  0.21972  0.95992  0.95653  1.0000
  H   H20       1.0  0.27643  0.95460  0.01772  1.0000
  H   H21       1.0  0.25857  0.98195  0.09373  1.0000
  H   H22       1.0  0.18364  0.01519  0.11010  1.0000
