data_image0
_chemical_formula_structural       C8ONC2NC2NOC4ONH26
_chemical_formula_sum              "C16 O3 N4 H26"
_cell_length_a       30
_cell_length_b       30
_cell_length_c       30
_cell_angle_alpha    90
_cell_angle_beta     90
_cell_angle_gamma    90

_space_group_name_H-M_alt    "P 1"
_space_group_IT_number       1

loop_
  _space_group_symop_operation_xyz
  'x, y, z'

loop_
  _atom_site_type_symbol
  _atom_site_label
  _atom_site_symmetry_multiplicity
  _atom_site_fract_x
  _atom_site_fract_y
  _atom_site_fract_z
  _atom_site_occupancy
  C   C1        1.0  0.83051  0.06143  0.05542  1.0000
  C   C2        1.0  0.81768  0.02109  0.02745  1.0000
  C   C3        1.0  0.85465  0.98641  0.02613  1.0000
  C   C4        1.0  0.85061  0.95244  0.06316  1.0000
  C   C5        1.0  0.88743  0.98547  0.99502  1.0000
  C   C6        1.0  0.92454  0.95117  0.99493  1.0000
  C   C7        1.0  0.96669  0.96519  0.96956  1.0000
  C   C8        1.0  0.99566  0.99746  0.99655  1.0000
  O   O1        1.0  0.97922  0.02096  0.02594  1.0000
  N   N1        1.0  0.04067  0.00008  0.98600  1.0000
  C   C9        1.0  0.06430  0.97051  0.95507  1.0000
  C   C10       1.0  0.11161  0.98712  0.94422  1.0000
  N   N2        1.0  0.13941  0.99075  0.98453  1.0000
  C   C11       1.0  0.18318  0.01089  0.97443  1.0000
  C   C12       1.0  0.21946  0.00143  0.00935  1.0000
  N   N3        1.0  0.22266  0.03795  0.04301  1.0000
  O   O2        1.0  0.22017  0.02371  0.08164  1.0000
  C   C13       1.0  0.11540  0.01293  0.02162  1.0000
  C   C14       1.0  0.06879  0.03176  0.01037  1.0000
  C   C15       1.0  0.95440  0.98511  0.92454  1.0000
  C   C16       1.0  0.91970  0.02110  0.92855  1.0000
  O   O3        1.0  0.91720  0.05161  0.90128  1.0000
  N   N4        1.0  0.88911  0.01728  0.96200  1.0000
  H   H1        1.0  0.80325  0.08572  0.05579  1.0000
  H   H2        1.0  0.86012  0.07807  0.04192  1.0000
  H   H3        1.0  0.83763  0.05196  0.08991  1.0000
  H   H4        1.0  0.80836  0.03188  0.99384  1.0000
  H   H5        1.0  0.78718  0.00622  0.04107  1.0000
  H   H6        1.0  0.81683  0.93851  0.06387  1.0000
  H   H7        1.0  0.87316  0.92409  0.05961  1.0000
  H   H8        1.0  0.85723  0.96812  0.09540  1.0000
  H   H9        1.0  0.91135  0.92077  0.97940  1.0000
  H   H10       1.0  0.93430  0.94253  0.02908  1.0000
  H   H11       1.0  0.98622  0.93473  0.96436  1.0000
  H   H12       1.0  0.06582  0.93749  0.97072  1.0000
  H   H13       1.0  0.04534  0.96707  0.92419  1.0000
  H   H14       1.0  0.12704  0.96354  0.92094  1.0000
  H   H15       1.0  0.10944  0.01948  0.92725  1.0000
  H   H16       1.0  0.19528  0.99565  0.94338  1.0000
  H   H17       1.0  0.17975  0.04671  0.96769  1.0000
  H   H18       1.0  0.21443  0.96939  0.02600  1.0000
  H   H19       1.0  0.25219  0.00060  0.99307  1.0000
  H   H20       1.0  0.13474  0.04019  0.03632  1.0000
  H   H21       1.0  0.11145  0.98774  0.04791  1.0000
  H   H22       1.0  0.05254  0.04279  0.04117  1.0000
  H   H23       1.0  0.07225  0.06120  0.98895  1.0000
  H   H24       1.0  0.94089  0.95928  0.90254  1.0000
  H   H25       1.0  0.98336  0.99986  0.90801  1.0000
  H   H26       1.0  0.86680  0.04254  0.96210  1.0000
