data_image0
_chemical_formula_structural       C3NC2SC6NC3NC2H21
_chemical_formula_sum              "C16 N3 S1 H21"
_cell_length_a       30
_cell_length_b       30
_cell_length_c       30
_cell_angle_alpha    90
_cell_angle_beta     90
_cell_angle_gamma    90

_space_group_name_H-M_alt    "P 1"
_space_group_IT_number       1

loop_
  _space_group_symop_operation_xyz
  'x, y, z'

loop_
  _atom_site_type_symbol
  _atom_site_label
  _atom_site_symmetry_multiplicity
  _atom_site_fract_x
  _atom_site_fract_y
  _atom_site_fract_z
  _atom_site_occupancy
  C   C1        1.0  0.89375  0.06471  0.96027  1.0000
  C   C2        1.0  0.92229  0.05236  0.00050  1.0000
  C   C3        1.0  0.94155  0.00462  0.99767  1.0000
  N   N1        1.0  0.97131  0.99435  0.03524  1.0000
  C   C4        1.0  0.01475  0.01659  0.03246  1.0000
  C   C5        1.0  0.04572  0.99929  0.06932  1.0000
  S   S1        1.0  0.09911  0.02881  0.07021  1.0000
  C   C6        1.0  0.12302  0.00972  0.01869  1.0000
  C   C7        1.0  0.13090  0.96412  0.01226  1.0000
  C   C8        1.0  0.14944  0.94881  0.97246  1.0000
  C   C9        1.0  0.16085  0.97900  0.93913  1.0000
  C   C10       1.0  0.15358  0.02453  0.94548  1.0000
  C   C11       1.0  0.13362  0.04035  0.98459  1.0000
  N   N2        1.0  0.13079  0.08665  0.99141  1.0000
  C   C12       1.0  0.90552  0.96892  0.99580  1.0000
  C   C13       1.0  0.90664  0.93644  0.96230  1.0000
  C   C14       1.0  0.87363  0.90409  0.96134  1.0000
  N   N3        1.0  0.84000  0.90167  0.99111  1.0000
  C   C15       1.0  0.83971  0.93280  0.02356  1.0000
  C   C16       1.0  0.87120  0.96645  0.02735  1.0000
  H   H1        1.0  0.86365  0.04422  0.95825  1.0000
  H   H2        1.0  0.91253  0.06074  0.92924  1.0000
  H   H3        1.0  0.88323  0.09957  0.96267  1.0000
  H   H4        1.0  0.90259  0.05690  0.03096  1.0000
  H   H5        1.0  0.94956  0.07662  0.00220  1.0000
  H   H6        1.0  0.96082  0.00232  0.96661  1.0000
  H   H7        1.0  0.95594  0.00213  0.06449  1.0000
  H   H8        1.0  0.01064  0.05270  0.03601  1.0000
  H   H9        1.0  0.02969  0.00993  0.99981  1.0000
  H   H10       1.0  0.03024  0.00473  0.10196  1.0000
  H   H11       1.0  0.05128  0.96336  0.06602  1.0000
  H   H12       1.0  0.12322  0.94019  0.03836  1.0000
  H   H13       1.0  0.15557  0.91340  0.96778  1.0000
  H   H14       1.0  0.17611  0.96725  0.90844  1.0000
  H   H15       1.0  0.16400  0.04777  0.91971  1.0000
  H   H16       1.0  0.11021  0.09470  0.01714  1.0000
  H   H17       1.0  0.12557  0.10479  0.96340  1.0000
  H   H18       1.0  0.93283  0.93605  0.93736  1.0000
  H   H19       1.0  0.87348  0.87843  0.93580  1.0000
  H   H20       1.0  0.81261  0.92992  0.04739  1.0000
  H   H21       1.0  0.86884  0.99001  0.05464  1.0000
