data_image0
_chemical_formula_structural       C7NCN5C3H18
_chemical_formula_sum              "C11 N6 H18"
_cell_length_a       30
_cell_length_b       30
_cell_length_c       30
_cell_angle_alpha    90
_cell_angle_beta     90
_cell_angle_gamma    90

_space_group_name_H-M_alt    "P 1"
_space_group_IT_number       1

loop_
  _space_group_symop_operation_xyz
  'x, y, z'

loop_
  _atom_site_type_symbol
  _atom_site_label
  _atom_site_symmetry_multiplicity
  _atom_site_fract_x
  _atom_site_fract_y
  _atom_site_fract_z
  _atom_site_occupancy
  C   C1        1.0  0.91717  0.93552  0.97324  1.0000
  C   C2        1.0  0.96137  0.96048  0.97003  1.0000
  C   C3        1.0  0.96557  0.00297  0.99962  1.0000
  C   C4        1.0  0.96418  0.99016  0.04992  1.0000
  C   C5        1.0  0.97287  0.02816  0.08262  1.0000
  C   C6        1.0  0.92704  0.03665  0.98970  1.0000
  C   C7        1.0  0.92151  0.04975  0.94081  1.0000
  N   N1        1.0  0.00778  0.02595  0.98907  1.0000
  C   C8        1.0  0.05058  0.00990  0.99417  1.0000
  N   N2        1.0  0.05782  0.96891  0.00661  1.0000
  N   N3        1.0  0.10138  0.95807  0.01026  1.0000
  N   N4        1.0  0.11508  0.91738  0.02284  1.0000
  N   N5        1.0  0.15933  0.91927  0.02277  1.0000
  N   N6        1.0  0.17426  0.96085  0.01029  1.0000
  C   C9        1.0  0.13817  0.98446  0.00268  1.0000
  C   C10       1.0  0.13031  0.02859  0.98917  1.0000
  C   C11       1.0  0.08802  0.04215  0.98467  1.0000
  H   H1        1.0  0.88898  0.95612  0.96284  1.0000
  H   H2        1.0  0.91095  0.92355  0.00710  1.0000
  H   H3        1.0  0.91796  0.90632  0.95134  1.0000
  H   H4        1.0  0.96741  0.96913  0.93500  1.0000
  H   H5        1.0  0.98756  0.93653  0.97862  1.0000
  H   H6        1.0  0.98839  0.96367  0.05683  1.0000
  H   H7        1.0  0.93145  0.97601  0.05802  1.0000
  H   H8        1.0  0.94721  0.05395  0.08046  1.0000
  H   H9        1.0  0.00542  0.04362  0.07712  1.0000
  H   H10       1.0  0.97246  0.01530  0.11678  1.0000
  H   H11       1.0  0.89526  0.02320  0.00176  1.0000
  H   H12       1.0  0.93263  0.06759  0.00839  1.0000
  H   H13       1.0  0.89552  0.07520  0.93776  1.0000
  H   H14       1.0  0.95227  0.06366  0.92703  1.0000
  H   H15       1.0  0.91141  0.02144  0.92020  1.0000
  H   H16       1.0  0.00465  0.05940  0.98546  1.0000
  H   H17       1.0  0.15831  0.05045  0.98265  1.0000
  H   H18       1.0  0.07972  0.07565  0.97416  1.0000
