data_image0
_chemical_formula_structural       C3NCONC4OC15H36
_chemical_formula_sum              "C23 N2 O2 H36"
_cell_length_a       30
_cell_length_b       30
_cell_length_c       30
_cell_angle_alpha    90
_cell_angle_beta     90
_cell_angle_gamma    90

_space_group_name_H-M_alt    "P 1"
_space_group_IT_number       1

loop_
  _space_group_symop_operation_xyz
  'x, y, z'

loop_
  _atom_site_type_symbol
  _atom_site_label
  _atom_site_symmetry_multiplicity
  _atom_site_fract_x
  _atom_site_fract_y
  _atom_site_fract_z
  _atom_site_occupancy
  C   C1        1.0  0.09540  0.89182  0.91840  1.0000
  C   C2        1.0  0.06056  0.91411  0.94790  1.0000
  C   C3        1.0  0.06232  0.96549  0.94571  1.0000
  N   N1        1.0  0.02602  0.98548  0.97096  1.0000
  C   C4        1.0  0.98326  0.98570  0.95513  1.0000
  O   O1        1.0  0.97187  0.97079  0.91899  1.0000
  N   N2        1.0  0.95479  0.00539  0.98519  1.0000
  C   C5        1.0  0.90869  0.01284  0.97240  1.0000
  C   C6        1.0  0.87905  0.02436  0.01248  1.0000
  C   C7        1.0  0.88864  0.07040  0.03146  1.0000
  C   C8        1.0  0.85668  0.09996  0.00635  1.0000
  O   O2        1.0  0.81723  0.07392  0.00117  1.0000
  C   C9        1.0  0.82978  0.02754  0.99792  1.0000
  C   C10       1.0  0.79602  0.99854  0.02460  1.0000
  C   C11       1.0  0.80683  0.94869  0.01877  1.0000
  C   C12       1.0  0.74854  0.00681  0.00651  1.0000
  C   C13       1.0  0.79604  0.01017  0.07459  1.0000
  C   C14       1.0  0.10600  0.98554  0.96183  1.0000
  C   C15       1.0  0.12697  0.01849  0.93623  1.0000
  C   C16       1.0  0.16664  0.03813  0.95056  1.0000
  C   C17       1.0  0.18618  0.02556  0.99106  1.0000
  C   C18       1.0  0.22970  0.04672  0.00480  1.0000
  C   C19       1.0  0.24033  0.04039  0.05418  1.0000
  C   C20       1.0  0.23367  0.99188  0.06759  1.0000
  C   C21       1.0  0.18505  0.97811  0.06129  1.0000
  C   C22       1.0  0.16581  0.99232  0.01701  1.0000
  C   C23       1.0  0.12562  0.97311  0.00248  1.0000
  H   H1        1.0  0.09271  0.90351  0.88396  1.0000
  H   H2        1.0  0.09058  0.85567  0.91842  1.0000
  H   H3        1.0  0.12925  0.89854  0.93016  1.0000
  H   H4        1.0  0.02762  0.90264  0.93692  1.0000
  H   H5        1.0  0.06424  0.90221  0.98225  1.0000
  H   H6        1.0  0.05734  0.97488  0.91068  1.0000
  H   H7        1.0  0.02940  0.98641  0.00439  1.0000
  H   H8        1.0  0.96976  0.03007  0.00243  1.0000
  H   H9        1.0  0.89645  0.98232  0.95641  1.0000
  H   H10       1.0  0.90834  0.03931  0.94720  1.0000
  H   H11       1.0  0.88465  0.99896  0.03807  1.0000
  H   H12       1.0  0.87987  0.07065  0.06696  1.0000
  H   H13       1.0  0.92320  0.08149  0.02853  1.0000
  H   H14       1.0  0.84889  0.13070  0.02430  1.0000
  H   H15       1.0  0.86935  0.10861  0.97321  1.0000
  H   H16       1.0  0.82658  0.01875  0.96252  1.0000
  H   H17       1.0  0.83897  0.93980  0.03361  1.0000
  H   H18       1.0  0.80792  0.93954  0.98341  1.0000
  H   H19       1.0  0.78141  0.92783  0.03474  1.0000
  H   H20       1.0  0.72409  0.98561  0.02347  1.0000
  H   H21       1.0  0.74660  0.99945  0.97080  1.0000
  H   H22       1.0  0.73811  0.04147  0.01137  1.0000
  H   H23       1.0  0.82835  0.00328  0.09008  1.0000
  H   H24       1.0  0.77110  0.99047  0.09261  1.0000
  H   H25       1.0  0.78825  0.04542  0.08016  1.0000
  H   H26       1.0  0.11241  0.02926  0.90480  1.0000
  H   H27       1.0  0.18222  0.06355  0.92988  1.0000
  H   H28       1.0  0.22906  0.08251  0.99741  1.0000
  H   H29       1.0  0.25635  0.03180  0.98470  1.0000
  H   H30       1.0  0.27476  0.05069  0.06073  1.0000
  H   H31       1.0  0.21866  0.06178  0.07446  1.0000
  H   H32       1.0  0.24336  0.98698  0.10247  1.0000
  H   H33       1.0  0.25541  0.97052  0.04736  1.0000
  H   H34       1.0  0.16477  0.99312  0.08780  1.0000
  H   H35       1.0  0.18264  0.94181  0.06482  1.0000
  H   H36       1.0  0.10965  0.94811  0.02336  1.0000
