data_image0
_chemical_formula_structural       C3NCOCN2C5BrC4NC2NC3H26
_chemical_formula_sum              "C19 N5 O1 Br1 H26"
_cell_length_a       30
_cell_length_b       30
_cell_length_c       30
_cell_angle_alpha    90
_cell_angle_beta     90
_cell_angle_gamma    90

_space_group_name_H-M_alt    "P 1"
_space_group_IT_number       1

loop_
  _space_group_symop_operation_xyz
  'x, y, z'

loop_
  _atom_site_type_symbol
  _atom_site_label
  _atom_site_symmetry_multiplicity
  _atom_site_fract_x
  _atom_site_fract_y
  _atom_site_fract_z
  _atom_site_occupancy
  C   C1        1.0  0.94915  0.95059  0.87511  1.0000
  C   C2        1.0  0.91925  0.97679  0.90664  1.0000
  C   C3        1.0  0.92990  0.96980  0.95649  1.0000
  N   N1        1.0  0.97090  0.99052  0.96996  1.0000
  C   C4        1.0  0.01149  0.96888  0.96767  1.0000
  O   O1        1.0  0.01556  0.93201  0.95029  1.0000
  C   C5        1.0  0.04931  0.99336  0.98777  1.0000
  N   N2        1.0  0.09055  0.97622  0.98761  1.0000
  N   N3        1.0  0.11783  0.00729  0.00599  1.0000
  C   C6        1.0  0.16485  0.99909  0.00561  1.0000
  C   C7        1.0  0.19643  0.03204  0.01535  1.0000
  C   C8        1.0  0.24206  0.02226  0.01411  1.0000
  C   C9        1.0  0.25668  0.97964  0.00293  1.0000
  C   C10       1.0  0.22556  0.94681  0.99274  1.0000
  Br  Br1       1.0  0.24524  0.88894  0.97741  1.0000
  C   C11       1.0  0.18003  0.95626  0.99381  1.0000
  C   C12       1.0  0.09312  0.04295  0.02233  1.0000
  C   C13       1.0  0.10989  0.08069  0.04953  1.0000
  C   C14       1.0  0.04960  0.03526  0.00932  1.0000
  N   N4        1.0  0.89755  0.98954  0.98726  1.0000
  C   C15       1.0  0.87878  0.03294  0.97459  1.0000
  C   C16       1.0  0.85050  0.05385  0.01262  1.0000
  N   N5        1.0  0.82673  0.02228  0.04211  1.0000
  C   C17       1.0  0.85147  0.01486  0.08347  1.0000
  C   C18       1.0  0.81910  0.97993  0.01847  1.0000
  C   C19       1.0  0.86130  0.95799  0.99806  1.0000
  H   H1        1.0  0.93702  0.95386  0.84086  1.0000
  H   H2        1.0  0.98334  0.96314  0.87571  1.0000
  H   H3        1.0  0.94941  0.91511  0.88355  1.0000
  H   H4        1.0  0.92175  0.01214  0.89768  1.0000
  H   H5        1.0  0.88482  0.96639  0.90009  1.0000
  H   H6        1.0  0.93308  0.93399  0.96324  1.0000
  H   H7        1.0  0.96702  0.01553  0.99185  1.0000
  H   H8        1.0  0.18741  0.06610  0.02291  1.0000
  H   H9        1.0  0.26629  0.04816  0.02160  1.0000
  H   H10       1.0  0.29216  0.97245  0.00202  1.0000
  H   H11       1.0  0.15642  0.92989  0.98567  1.0000
  H   H12       1.0  0.13271  0.06935  0.07562  1.0000
  H   H13       1.0  0.08219  0.09742  0.06647  1.0000
  H   H14       1.0  0.12625  0.10564  0.02858  1.0000
  H   H15       1.0  0.02169  0.05707  0.01584  1.0000
  H   H16       1.0  0.90530  0.05661  0.96609  1.0000
  H   H17       1.0  0.85747  0.02947  0.94503  1.0000
  H   H18       1.0  0.87168  0.07621  0.03239  1.0000
  H   H19       1.0  0.82538  0.07545  0.99712  1.0000
  H   H20       1.0  0.83368  0.99131  0.10498  1.0000
  H   H21       1.0  0.85410  0.04604  0.10232  1.0000
  H   H22       1.0  0.88521  0.00209  0.07804  1.0000
  H   H23       1.0  0.80205  0.95598  0.04027  1.0000
  H   H24       1.0  0.79551  0.98674  0.99129  1.0000
  H   H25       1.0  0.87448  0.93368  0.02196  1.0000
  H   H26       1.0  0.85075  0.93942  0.96838  1.0000
