data_image0
_chemical_formula_structural       C3NC2OC12ONC8H34
_chemical_formula_sum              "C25 N2 O2 H34"
_cell_length_a       30
_cell_length_b       30
_cell_length_c       30
_cell_angle_alpha    90
_cell_angle_beta     90
_cell_angle_gamma    90

_space_group_name_H-M_alt    "P 1"
_space_group_IT_number       1

loop_
  _space_group_symop_operation_xyz
  'x, y, z'

loop_
  _atom_site_type_symbol
  _atom_site_label
  _atom_site_symmetry_multiplicity
  _atom_site_fract_x
  _atom_site_fract_y
  _atom_site_fract_z
  _atom_site_occupancy
  C   C1        1.0  0.92852  0.05776  0.88553  1.0000
  C   C2        1.0  0.95881  0.01991  0.87047  1.0000
  C   C3        1.0  0.99039  0.99929  0.90560  1.0000
  N   N1        1.0  0.01877  0.03402  0.92559  1.0000
  C   C4        1.0  0.06150  0.01774  0.94310  1.0000
  C   C5        1.0  0.09591  0.01452  0.90546  1.0000
  O   O1        1.0  0.07698  0.04948  0.97507  1.0000
  C   C6        1.0  0.10317  0.03565  0.00969  1.0000
  C   C7        1.0  0.11137  0.06841  0.04168  1.0000
  C   C8        1.0  0.13828  0.05947  0.07861  1.0000
  C   C9        1.0  0.15763  0.01732  0.08421  1.0000
  C   C10       1.0  0.18525  0.00775  0.12081  1.0000
  C   C11       1.0  0.20450  0.96568  0.12572  1.0000
  C   C12       1.0  0.19619  0.93259  0.09424  1.0000
  C   C13       1.0  0.16881  0.94160  0.05769  1.0000
  C   C14       1.0  0.14938  0.98385  0.05209  1.0000
  C   C15       1.0  0.12222  0.99353  0.01504  1.0000
  C   C16       1.0  0.96731  0.97191  0.94203  1.0000
  C   C17       1.0  0.92590  0.94522  0.92905  1.0000
  O   O2        1.0  0.91820  0.91320  0.90579  1.0000
  N   N2        1.0  0.89950  0.96913  0.95736  1.0000
  C   C18       1.0  0.86149  0.94938  0.97875  1.0000
  C   C19       1.0  0.83937  0.97817  0.01466  1.0000
  C   C20       1.0  0.82639  0.02449  0.99776  1.0000
  C   C21       1.0  0.86609  0.97969  0.05846  1.0000
  C   C22       1.0  0.91180  0.00305  0.05767  1.0000
  C   C23       1.0  0.93089  0.00369  0.10514  1.0000
  C   C24       1.0  0.94552  0.98062  0.02620  1.0000
  C   C25       1.0  0.93675  0.99350  0.97791  1.0000
  H   H1        1.0  0.94688  0.08395  0.90303  1.0000
  H   H2        1.0  0.90168  0.04588  0.90705  1.0000
  H   H3        1.0  0.91264  0.07304  0.85640  1.0000
  H   H4        1.0  0.93819  0.99380  0.85531  1.0000
  H   H5        1.0  0.97959  0.03292  0.84324  1.0000
  H   H6        1.0  0.01138  0.97622  0.88645  1.0000
  H   H7        1.0  0.02554  0.05843  0.90304  1.0000
  H   H8        1.0  0.05639  0.98525  0.95887  1.0000
  H   H9        1.0  0.08544  0.99155  0.87916  1.0000
  H   H10       1.0  0.10215  0.04724  0.89048  1.0000
  H   H11       1.0  0.12809  0.00295  0.91816  1.0000
  H   H12       1.0  0.09675  0.10136  0.03776  1.0000
  H   H13       1.0  0.14419  0.08584  0.10280  1.0000
  H   H14       1.0  0.19219  0.03321  0.14571  1.0000
  H   H15       1.0  0.22610  0.95881  0.15403  1.0000
  H   H16       1.0  0.21120  0.89982  0.09800  1.0000
  H   H17       1.0  0.16289  0.91529  0.03343  1.0000
  H   H18       1.0  0.11715  0.96745  0.99055  1.0000
  H   H19       1.0  0.99193  0.94926  0.95715  1.0000
  H   H20       1.0  0.87143  0.91704  0.99261  1.0000
  H   H21       1.0  0.83727  0.94210  0.95232  1.0000
  H   H22       1.0  0.80796  0.96120  0.02302  1.0000
  H   H23       1.0  0.80795  0.04281  0.02342  1.0000
  H   H24       1.0  0.80480  0.02179  0.96847  1.0000
  H   H25       1.0  0.85526  0.04463  0.98844  1.0000
  H   H26       1.0  0.87055  0.94538  0.07043  1.0000
  H   H27       1.0  0.84518  0.99627  0.08355  1.0000
  H   H28       1.0  0.90708  0.03791  0.04765  1.0000
  H   H29       1.0  0.96233  0.02223  0.10628  1.0000
  H   H30       1.0  0.93724  0.96988  0.11733  1.0000
  H   H31       1.0  0.90771  0.01993  0.12824  1.0000
  H   H32       1.0  0.97926  0.99194  0.03470  1.0000
  H   H33       1.0  0.94538  0.94436  0.03079  1.0000
  H   H34       1.0  0.93335  0.02965  0.97397  1.0000
