data_image0
_chemical_formula_structural       C3NCONC5SC5ClCONC2OH20
_chemical_formula_sum              "C17 N3 O3 S1 Cl1 H20"
_cell_length_a       30
_cell_length_b       30
_cell_length_c       30
_cell_angle_alpha    90
_cell_angle_beta     90
_cell_angle_gamma    90

_space_group_name_H-M_alt    "P 1"
_space_group_IT_number       1

loop_
  _space_group_symop_operation_xyz
  'x, y, z'

loop_
  _atom_site_type_symbol
  _atom_site_label
  _atom_site_symmetry_multiplicity
  _atom_site_fract_x
  _atom_site_fract_y
  _atom_site_fract_z
  _atom_site_occupancy
  C   C1        1.0  0.02595  0.94608  0.10982  1.0000
  C   C2        1.0  0.03570  0.99506  0.10079  1.0000
  C   C3        1.0  0.02660  0.01152  0.05301  1.0000
  N   N1        1.0  0.97937  0.00931  0.04218  1.0000
  C   C4        1.0  0.96124  0.03810  0.01164  1.0000
  O   O1        1.0  0.98156  0.06871  0.99399  1.0000
  N   N2        1.0  0.91761  0.02791  0.00328  1.0000
  C   C5        1.0  0.89163  0.05705  0.97511  1.0000
  C   C6        1.0  0.84754  0.03547  0.96682  1.0000
  C   C7        1.0  0.83716  0.00278  0.93606  1.0000
  C   C8        1.0  0.79141  0.99018  0.93776  1.0000
  C   C9        1.0  0.76836  0.01360  0.96979  1.0000
  S   S1        1.0  0.80179  0.05045  0.99759  1.0000
  C   C10       1.0  0.05342  0.98822  0.01798  1.0000
  C   C11       1.0  0.09146  0.00086  0.99805  1.0000
  C   C12       1.0  0.11819  0.03946  0.00840  1.0000
  C   C13       1.0  0.14114  0.06537  0.97997  1.0000
  C   C14       1.0  0.14264  0.06277  0.93016  1.0000
  Cl  Cl1       1.0  0.17185  0.10952  0.00192  1.0000
  C   C15       1.0  0.10390  0.96499  0.96631  1.0000
  O   O2        1.0  0.13896  0.96266  0.94591  1.0000
  N   N3        1.0  0.07000  0.93514  0.96605  1.0000
  C   C16       1.0  0.06978  0.89440  0.94061  1.0000
  C   C17       1.0  0.03936  0.94592  0.99731  1.0000
  O   O3        1.0  0.00612  0.92508  0.00801  1.0000
  H   H1        1.0  0.04807  0.92428  0.09072  1.0000
  H   H2        1.0  0.03138  0.93872  0.14516  1.0000
  H   H3        1.0  0.99137  0.93758  0.10198  1.0000
  H   H4        1.0  0.01564  0.01503  0.12399  1.0000
  H   H5        1.0  0.07071  0.00152  0.10921  1.0000
  H   H6        1.0  0.03549  0.04702  0.05269  1.0000
  H   H7        1.0  0.96646  0.97807  0.04013  1.0000
  H   H8        1.0  0.90129  0.01378  0.02910  1.0000
  H   H9        1.0  0.90954  0.06244  0.94372  1.0000
  H   H10       1.0  0.88839  0.08940  0.99178  1.0000
  H   H11       1.0  0.86143  0.98852  0.91341  1.0000
  H   H12       1.0  0.77620  0.96520  0.91660  1.0000
  H   H13       1.0  0.73343  0.01089  0.97827  1.0000
  H   H14       1.0  0.11913  0.04816  0.04366  1.0000
  H   H15       1.0  0.13894  0.09597  0.91537  1.0000
  H   H16       1.0  0.17449  0.04883  0.91910  1.0000
  H   H17       1.0  0.11565  0.04248  0.91644  1.0000
  H   H18       1.0  0.08552  0.86829  0.96065  1.0000
  H   H19       1.0  0.08864  0.89870  0.90971  1.0000
  H   H20       1.0  0.03548  0.88451  0.93321  1.0000
