data_image0
_chemical_formula_structural       C5NC3ONC6H28
_chemical_formula_sum              "C14 N2 O1 H28"
_cell_length_a       30
_cell_length_b       30
_cell_length_c       30
_cell_angle_alpha    90
_cell_angle_beta     90
_cell_angle_gamma    90

_space_group_name_H-M_alt    "P 1"
_space_group_IT_number       1

loop_
  _space_group_symop_operation_xyz
  'x, y, z'

loop_
  _atom_site_type_symbol
  _atom_site_label
  _atom_site_symmetry_multiplicity
  _atom_site_fract_x
  _atom_site_fract_y
  _atom_site_fract_z
  _atom_site_occupancy
  C   C1        1.0  0.85629  0.04156  0.95840  1.0000
  C   C2        1.0  0.89581  0.03382  0.98948  1.0000
  C   C3        1.0  0.91592  0.98590  0.98911  1.0000
  C   C4        1.0  0.93031  0.97326  0.94094  1.0000
  C   C5        1.0  0.88021  0.95012  0.00220  1.0000
  N   N1        1.0  0.85835  0.95672  0.04508  1.0000
  C   C6        1.0  0.95782  0.98200  0.02092  1.0000
  C   C7        1.0  0.95192  0.00049  0.06829  1.0000
  C   C8        1.0  0.00047  0.00356  0.00245  1.0000
  O   O1        1.0  0.00086  0.03676  0.97862  1.0000
  N   N2        1.0  0.03906  0.98284  0.01687  1.0000
  C   C9        1.0  0.08294  0.00121  0.00723  1.0000
  C   C10       1.0  0.09439  0.03881  0.03997  1.0000
  C   C11       1.0  0.14126  0.05697  0.03209  1.0000
  C   C12       1.0  0.17619  0.02003  0.03332  1.0000
  C   C13       1.0  0.16499  0.98257  0.00081  1.0000
  C   C14       1.0  0.11819  0.96426  0.00875  1.0000
  H   H1        1.0  0.84478  0.07607  0.96155  1.0000
  H   H2        1.0  0.86535  0.03630  0.92349  1.0000
  H   H3        1.0  0.82813  0.01993  0.96659  1.0000
  H   H4        1.0  0.88506  0.04272  0.02324  1.0000
  H   H5        1.0  0.92156  0.05812  0.98051  1.0000
  H   H6        1.0  0.95043  0.99931  0.92525  1.0000
  H   H7        1.0  0.90145  0.96781  0.91921  1.0000
  H   H8        1.0  0.94974  0.94232  0.94079  1.0000
  H   H9        1.0  0.89596  0.91711  0.00265  1.0000
  H   H10       1.0  0.85417  0.94834  0.97661  1.0000
  H   H11       1.0  0.84058  0.98568  0.04455  1.0000
  H   H12       1.0  0.83552  0.93200  0.04996  1.0000
  H   H13       1.0  0.96518  0.94622  0.02414  1.0000
  H   H14       1.0  0.98210  0.99515  0.08820  1.0000
  H   H15       1.0  0.94601  0.03650  0.06803  1.0000
  H   H16       1.0  0.92479  0.98436  0.08632  1.0000
  H   H17       1.0  0.03651  0.96046  0.04197  1.0000
  H   H18       1.0  0.08204  0.01512  0.97339  1.0000
  H   H19       1.0  0.09177  0.02650  0.07434  1.0000
  H   H20       1.0  0.07020  0.06605  0.03695  1.0000
  H   H21       1.0  0.14246  0.07377  0.99963  1.0000
  H   H22       1.0  0.14910  0.08213  0.05738  1.0000
  H   H23       1.0  0.17835  0.00647  0.06721  1.0000
  H   H24       1.0  0.20902  0.03388  0.02528  1.0000
  H   H25       1.0  0.18945  0.95565  0.00417  1.0000
  H   H26       1.0  0.16751  0.99503  0.96652  1.0000
  H   H27       1.0  0.11717  0.94737  0.04120  1.0000
  H   H28       1.0  0.11061  0.93879  0.98364  1.0000
