data_image0
_chemical_formula_structural       C6NOCN2C5O2H15
_chemical_formula_sum              "C12 N3 O3 H15"
_cell_length_a       30
_cell_length_b       30
_cell_length_c       30
_cell_angle_alpha    90
_cell_angle_beta     90
_cell_angle_gamma    90

_space_group_name_H-M_alt    "P 1"
_space_group_IT_number       1

loop_
  _space_group_symop_operation_xyz
  'x, y, z'

loop_
  _atom_site_type_symbol
  _atom_site_label
  _atom_site_symmetry_multiplicity
  _atom_site_fract_x
  _atom_site_fract_y
  _atom_site_fract_z
  _atom_site_occupancy
  C   C1        1.0  0.96886  0.90436  0.96570  1.0000
  C   C2        1.0  0.94138  0.93946  0.99017  1.0000
  C   C3        1.0  0.96295  0.98609  0.98951  1.0000
  C   C4        1.0  0.93294  0.02195  0.01112  1.0000
  C   C5        1.0  0.88943  0.03046  0.98555  1.0000
  C   C6        1.0  0.86243  0.06898  0.00500  1.0000
  N   N1        1.0  0.88356  0.11269  0.99425  1.0000
  O   O1        1.0  0.89291  0.13415  0.02816  1.0000
  C   C7        1.0  0.00683  0.98552  0.01304  1.0000
  N   N2        1.0  0.01622  0.97506  0.05456  1.0000
  N   N3        1.0  0.06172  0.97998  0.05899  1.0000
  C   C8        1.0  0.07716  0.99315  0.01988  1.0000
  C   C9        1.0  0.12309  0.00200  0.01059  1.0000
  C   C10       1.0  0.15933  0.99913  0.03913  1.0000
  C   C11       1.0  0.19769  0.01119  0.01443  1.0000
  C   C12       1.0  0.18293  0.02077  0.97218  1.0000
  O   O2        1.0  0.13812  0.01535  0.96944  1.0000
  O   O3        1.0  0.04360  0.99731  0.98889  1.0000
  H   H1        1.0  0.97511  0.91441  0.93118  1.0000
  H   H2        1.0  0.95088  0.87261  0.96511  1.0000
  H   H3        1.0  0.00096  0.89858  0.98203  1.0000
  H   H4        1.0  0.93592  0.92841  0.02461  1.0000
  H   H5        1.0  0.90861  0.94066  0.97414  1.0000
  H   H6        1.0  0.96863  0.99564  0.95463  1.0000
  H   H7        1.0  0.95187  0.05320  0.01324  1.0000
  H   H8        1.0  0.92500  0.01247  0.04558  1.0000
  H   H9        1.0  0.89680  0.03670  0.95028  1.0000
  H   H10       1.0  0.86855  0.00054  0.98703  1.0000
  H   H11       1.0  0.85839  0.06566  0.04113  1.0000
  H   H12       1.0  0.82931  0.07003  0.98973  1.0000
  H   H13       1.0  0.15782  0.98941  0.07384  1.0000
  H   H14       1.0  0.23178  0.01272  0.02600  1.0000
  H   H15       1.0  0.19922  0.03137  0.94182  1.0000
