data_image0
_chemical_formula_structural       C4NC3NC8NOCNC8OC5ClCH31
_chemical_formula_sum              "C30 N4 O2 Cl1 H31"
_cell_length_a       30
_cell_length_b       30
_cell_length_c       30
_cell_angle_alpha    90
_cell_angle_beta     90
_cell_angle_gamma    90

_space_group_name_H-M_alt    "P 1"
_space_group_IT_number       1

loop_
  _space_group_symop_operation_xyz
  'x, y, z'

loop_
  _atom_site_type_symbol
  _atom_site_label
  _atom_site_symmetry_multiplicity
  _atom_site_fract_x
  _atom_site_fract_y
  _atom_site_fract_z
  _atom_site_occupancy
  C   C1        1.0  0.05121  0.14798  0.91199  1.0000
  C   C2        1.0  0.07172  0.13029  0.95513  1.0000
  C   C3        1.0  0.03905  0.11920  0.99405  1.0000
  C   C4        1.0  0.06526  0.12088  0.03643  1.0000
  N   N1        1.0  0.08519  0.12307  0.06959  1.0000
  C   C5        1.0  0.00072  0.15407  0.99827  1.0000
  C   C6        1.0  0.01514  0.20196  0.00818  1.0000
  C   C7        1.0  0.01904  0.06992  0.99191  1.0000
  N   N2        1.0  0.05624  0.03793  0.99414  1.0000
  C   C8        1.0  0.05326  0.00343  0.01896  1.0000
  C   C9        1.0  0.01719  0.98684  0.04799  1.0000
  C   C10       1.0  0.03243  0.94867  0.06497  1.0000
  C   C11       1.0  0.07675  0.93888  0.04948  1.0000
  C   C12       1.0  0.10339  0.90124  0.06033  1.0000
  C   C13       1.0  0.14665  0.89002  0.04860  1.0000
  C   C14       1.0  0.15537  0.84857  0.06905  1.0000
  C   C15       1.0  0.19650  0.82142  0.06737  1.0000
  N   N3        1.0  0.12007  0.83456  0.09219  1.0000
  O   O1        1.0  0.08802  0.86703  0.08690  1.0000
  C   C16       1.0  0.09037  0.97114  0.02189  1.0000
  N   N4        1.0  0.98950  0.06296  0.95262  1.0000
  C   C17       1.0  0.00983  0.03940  0.91474  1.0000
  C   C18       1.0  0.94722  0.04568  0.96469  1.0000
  C   C19       1.0  0.91369  0.07527  0.97823  1.0000
  C   C20       1.0  0.87174  0.06006  0.99144  1.0000
  C   C21       1.0  0.86245  0.01460  0.99127  1.0000
  C   C22       1.0  0.89489  0.98393  0.97764  1.0000
  C   C23       1.0  0.88517  0.93577  0.97706  1.0000
  C   C24       1.0  0.89619  0.90860  0.01396  1.0000
  O   O2        1.0  0.91704  0.92893  0.04935  1.0000
  C   C25       1.0  0.90627  0.91132  0.09211  1.0000
  C   C26       1.0  0.88747  0.86271  0.01305  1.0000
  C   C27       1.0  0.86676  0.84340  0.97624  1.0000
  C   C28       1.0  0.85511  0.86971  0.93985  1.0000
  C   C29       1.0  0.86432  0.91542  0.94017  1.0000
  Cl  Cl1       1.0  0.84915  0.94554  0.89325  1.0000
  C   C30       1.0  0.93696  0.99997  0.96450  1.0000
  H   H1        1.0  0.02257  0.12857  0.90079  1.0000
  H   H2        1.0  0.04029  0.18256  0.91565  1.0000
  H   H3        1.0  0.07620  0.14744  0.88537  1.0000
  H   H4        1.0  0.09195  0.10086  0.94729  1.0000
  H   H5        1.0  0.09589  0.15551  0.96620  1.0000
  H   H6        1.0  0.98097  0.15447  0.96758  1.0000
  H   H7        1.0  0.97797  0.14394  0.02511  1.0000
  H   H8        1.0  0.03057  0.20482  0.04111  1.0000
  H   H9        1.0  0.98589  0.22382  0.00803  1.0000
  H   H10       1.0  0.03866  0.21477  0.98348  1.0000
  H   H11       1.0  0.99895  0.06719  0.02244  1.0000
  H   H12       1.0  0.98512  0.00183  0.05344  1.0000
  H   H13       1.0  0.01405  0.92726  0.08733  1.0000
  H   H14       1.0  0.16901  0.90923  0.02793  1.0000
  H   H15       1.0  0.22317  0.83911  0.04985  1.0000
  H   H16       1.0  0.20831  0.81377  0.10104  1.0000
  H   H17       1.0  0.19038  0.79001  0.04979  1.0000
  H   H18       1.0  0.12123  0.97497  0.00409  1.0000
  H   H19       1.0  0.98714  0.03935  0.88607  1.0000
  H   H20       1.0  0.01885  0.00486  0.92249  1.0000
  H   H21       1.0  0.04039  0.05603  0.90388  1.0000
  H   H22       1.0  0.91968  0.11093  0.97777  1.0000
  H   H23       1.0  0.84627  0.08375  0.00153  1.0000
  H   H24       1.0  0.82964  0.00313  0.00157  1.0000
  H   H25       1.0  0.92470  0.88045  0.09847  1.0000
  H   H26       1.0  0.91667  0.93574  0.11716  1.0000
  H   H27       1.0  0.87027  0.90616  0.09585  1.0000
  H   H28       1.0  0.89696  0.84119  0.04054  1.0000
  H   H29       1.0  0.85997  0.80779  0.97583  1.0000
  H   H30       1.0  0.83902  0.85449  0.91117  1.0000
  H   H31       1.0  0.96197  0.97561  0.95481  1.0000
