data_image0
_chemical_formula_structural       C3NCN2C6OC7SO2CH25
_chemical_formula_sum              "C18 N3 O3 S1 H25"
_cell_length_a       30
_cell_length_b       30
_cell_length_c       30
_cell_angle_alpha    90
_cell_angle_beta     90
_cell_angle_gamma    90

_space_group_name_H-M_alt    "P 1"
_space_group_IT_number       1

loop_
  _space_group_symop_operation_xyz
  'x, y, z'

loop_
  _atom_site_type_symbol
  _atom_site_label
  _atom_site_symmetry_multiplicity
  _atom_site_fract_x
  _atom_site_fract_y
  _atom_site_fract_z
  _atom_site_occupancy
  C   C1        1.0  0.85678  0.09818  0.03406  1.0000
  C   C2        1.0  0.87245  0.06080  0.06456  1.0000
  C   C3        1.0  0.89524  0.02023  0.04248  1.0000
  N   N1        1.0  0.93856  0.03314  0.02471  1.0000
  C   C4        1.0  0.97445  0.00489  0.02391  1.0000
  N   N2        1.0  0.97588  0.96410  0.03835  1.0000
  N   N3        1.0  0.01973  0.94702  0.03209  1.0000
  C   C5        1.0  0.04386  0.97788  0.01360  1.0000
  C   C6        1.0  0.09161  0.97332  0.00277  1.0000
  C   C7        1.0  0.11496  0.93600  0.01824  1.0000
  C   C8        1.0  0.16054  0.93155  0.00951  1.0000
  C   C9        1.0  0.18342  0.96420  0.98498  1.0000
  C   C10       1.0  0.23273  0.95815  0.97627  1.0000
  O   O1        1.0  0.25150  0.99632  0.95481  1.0000
  C   C11       1.0  0.29701  0.98947  0.94368  1.0000
  C   C12       1.0  0.15950  0.00121  0.96920  1.0000
  C   C13       1.0  0.11397  0.00593  0.97812  1.0000
  C   C14       1.0  0.01816  0.01958  0.00482  1.0000
  C   C15       1.0  0.86909  0.99373  0.00693  1.0000
  C   C16       1.0  0.82056  0.98329  0.01969  1.0000
  C   C17       1.0  0.80052  0.96010  0.97916  1.0000
  S   S1        1.0  0.82040  0.99150  0.93278  1.0000
  O   O2        1.0  0.78924  0.02750  0.92434  1.0000
  O   O3        1.0  0.83462  0.96106  0.89809  1.0000
  C   C18       1.0  0.86824  0.01438  0.96002  1.0000
  H   H1        1.0  0.82825  0.08799  0.01374  1.0000
  H   H2        1.0  0.84584  0.12668  0.05420  1.0000
  H   H3        1.0  0.88338  0.10992  0.01206  1.0000
  H   H4        1.0  0.84385  0.04930  0.08422  1.0000
  H   H5        1.0  0.89589  0.07531  0.08873  1.0000
  H   H6        1.0  0.90100  0.99700  0.07029  1.0000
  H   H7        1.0  0.94250  0.06484  0.01364  1.0000
  H   H8        1.0  0.09802  0.91046  0.03774  1.0000
  H   H9        1.0  0.17819  0.90255  0.02242  1.0000
  H   H10       1.0  0.24972  0.95340  0.00824  1.0000
  H   H11       1.0  0.23748  0.92858  0.95526  1.0000
  H   H12       1.0  0.29997  0.96431  0.91735  1.0000
  H   H13       1.0  0.31055  0.02099  0.93111  1.0000
  H   H14       1.0  0.31620  0.97946  0.97308  1.0000
  H   H15       1.0  0.17637  0.02699  0.94996  1.0000
  H   H16       1.0  0.09696  0.03534  0.96557  1.0000
  H   H17       1.0  0.01492  0.02625  0.96915  1.0000
  H   H18       1.0  0.03151  0.04807  0.02307  1.0000
  H   H19       1.0  0.88604  0.96130  0.00325  1.0000
  H   H20       1.0  0.80186  0.01393  0.02656  1.0000
  H   H21       1.0  0.81866  0.96197  0.04926  1.0000
  H   H22       1.0  0.76412  0.95998  0.97929  1.0000
  H   H23       1.0  0.81316  0.92600  0.97588  1.0000
  H   H24       1.0  0.89794  0.00531  0.94087  1.0000
  H   H25       1.0  0.86460  0.05056  0.95996  1.0000
