data_image0
_chemical_formula_structural       C4NC5O2H19
_chemical_formula_sum              "C9 N1 O2 H19"
_cell_length_a       30
_cell_length_b       30
_cell_length_c       30
_cell_angle_alpha    90
_cell_angle_beta     90
_cell_angle_gamma    90

_space_group_name_H-M_alt    "P 1"
_space_group_IT_number       1

loop_
  _space_group_symop_operation_xyz
  'x, y, z'

loop_
  _atom_site_type_symbol
  _atom_site_label
  _atom_site_symmetry_multiplicity
  _atom_site_fract_x
  _atom_site_fract_y
  _atom_site_fract_z
  _atom_site_occupancy
  C   C1        1.0  0.12828  0.01826  0.02163  1.0000
  C   C2        1.0  0.08724  0.03693  0.99823  1.0000
  C   C3        1.0  0.04534  0.00795  0.00524  1.0000
  C   C4        1.0  0.00399  0.03133  0.98534  1.0000
  N   N1        1.0  0.95914  0.01399  0.99600  1.0000
  C   C5        1.0  0.95192  0.00948  0.04428  1.0000
  C   C6        1.0  0.90310  0.00452  0.05740  1.0000
  C   C7        1.0  0.94729  0.97396  0.97045  1.0000
  C   C8        1.0  0.90204  0.97966  0.94803  1.0000
  C   C9        1.0  0.05172  0.96222  0.98530  1.0000
  O   O1        1.0  0.04618  0.92684  0.00464  1.0000
  O   O2        1.0  0.06443  0.96259  0.94226  1.0000
  H   H1        1.0  0.15654  0.04095  0.01732  1.0000
  H   H2        1.0  0.12229  0.01439  0.05741  1.0000
  H   H3        1.0  0.13788  0.98583  0.00799  1.0000
  H   H4        1.0  0.09453  0.04081  0.96262  1.0000
  H   H5        1.0  0.08102  0.07048  0.01139  1.0000
  H   H6        1.0  0.04113  0.00371  0.04129  1.0000
  H   H7        1.0  0.00737  0.03386  0.94896  1.0000
  H   H8        1.0  0.00425  0.06612  0.99680  1.0000
  H   H9        1.0  0.97071  0.98122  0.05786  1.0000
  H   H10       1.0  0.96429  0.03957  0.06100  1.0000
  H   H11       1.0  0.89979  0.00625  0.09371  1.0000
  H   H12       1.0  0.88278  0.03126  0.04311  1.0000
  H   H13       1.0  0.88948  0.97240  0.04679  1.0000
  H   H14       1.0  0.97121  0.96788  0.94351  1.0000
  H   H15       1.0  0.94755  0.94387  0.99119  1.0000
  H   H16       1.0  0.90207  0.00861  0.92577  1.0000
  H   H17       1.0  0.87500  0.98390  0.97206  1.0000
  H   H18       1.0  0.89437  0.95020  0.92789  1.0000
  H   H19       1.0  0.06708  0.93095  0.93452  1.0000
