data_image0
_chemical_formula_structural       C3ONC3O2C11N2C4H23
_chemical_formula_sum              "C21 O3 N3 H23"
_cell_length_a       30
_cell_length_b       30
_cell_length_c       30
_cell_angle_alpha    90
_cell_angle_beta     90
_cell_angle_gamma    90

_space_group_name_H-M_alt    "P 1"
_space_group_IT_number       1

loop_
  _space_group_symop_operation_xyz
  'x, y, z'

loop_
  _atom_site_type_symbol
  _atom_site_label
  _atom_site_symmetry_multiplicity
  _atom_site_fract_x
  _atom_site_fract_y
  _atom_site_fract_z
  _atom_site_occupancy
  C   C1        1.0  0.88223  0.11137  0.08852  1.0000
  C   C2        1.0  0.91594  0.09505  0.05448  1.0000
  C   C3        1.0  0.90982  0.04607  0.04316  1.0000
  O   O1        1.0  0.88248  0.02219  0.06188  1.0000
  N   N1        1.0  0.93918  0.03253  0.01001  1.0000
  C   C4        1.0  0.94299  0.98764  0.99894  1.0000
  C   C5        1.0  0.98280  0.96424  0.99584  1.0000
  C   C6        1.0  0.02718  0.98236  0.00177  1.0000
  O   O2        1.0  0.03371  0.02221  0.00858  1.0000
  O   O3        1.0  0.05984  0.94962  0.99851  1.0000
  C   C7        1.0  0.10301  0.96596  0.00436  1.0000
  C   C8        1.0  0.12084  0.96834  0.04709  1.0000
  C   C9        1.0  0.16452  0.98330  0.05255  1.0000
  C   C10       1.0  0.19051  0.99538  0.01546  1.0000
  C   C11       1.0  0.23452  0.01048  0.02051  1.0000
  C   C12       1.0  0.26006  0.02221  0.98343  1.0000
  C   C13       1.0  0.24197  0.01900  0.94083  1.0000
  C   C14       1.0  0.19827  0.00406  0.93516  1.0000
  C   C15       1.0  0.17210  0.99216  0.97210  1.0000
  C   C16       1.0  0.12814  0.97710  0.96690  1.0000
  C   C17       1.0  0.96983  0.91992  0.98847  1.0000
  N   N2        1.0  0.92589  0.91534  0.98501  1.0000
  N   N3        1.0  0.90959  0.95775  0.98746  1.0000
  C   C18       1.0  0.86371  0.96464  0.97048  1.0000
  C   C19       1.0  0.82963  0.94720  0.00467  1.0000
  C   C20       1.0  0.85240  0.01322  0.95787  1.0000
  C   C21       1.0  0.85747  0.93747  0.92674  1.0000
  H   H1        1.0  0.88746  0.14677  0.09562  1.0000
  H   H2        1.0  0.88524  0.09290  0.11986  1.0000
  H   H3        1.0  0.84812  0.10709  0.07626  1.0000
  H   H4        1.0  0.94970  0.09978  0.06758  1.0000
  H   H5        1.0  0.91263  0.11457  0.02379  1.0000
  H   H6        1.0  0.96861  0.04968  0.00994  1.0000
  H   H7        1.0  0.10116  0.95883  0.07593  1.0000
  H   H8        1.0  0.17829  0.98542  0.08602  1.0000
  H   H9        1.0  0.24930  0.01321  0.05351  1.0000
  H   H10       1.0  0.29408  0.03385  0.98785  1.0000
  H   H11       1.0  0.26185  0.02813  0.91195  1.0000
  H   H12       1.0  0.18476  0.00181  0.90159  1.0000
  H   H13       1.0  0.11349  0.97410  0.93393  1.0000
  H   H14       1.0  0.99054  0.89048  0.98568  1.0000
  H   H15       1.0  0.83161  0.96506  0.03634  1.0000
  H   H16       1.0  0.79548  0.95081  0.99219  1.0000
  H   H17       1.0  0.83497  0.91180  0.01198  1.0000
  H   H18       1.0  0.84755  0.03452  0.98693  1.0000
  H   H19       1.0  0.87826  0.02800  0.93674  1.0000
  H   H20       1.0  0.82096  0.01492  0.93926  1.0000
  H   H21       1.0  0.86074  0.90149  0.93226  1.0000
  H   H22       1.0  0.88224  0.94715  0.90166  1.0000
  H   H23       1.0  0.82431  0.94285  0.91235  1.0000
