data_image0
_chemical_formula_structural       C5SCONC4OC2SO2C2OC2H21
_chemical_formula_sum              "C16 S2 O5 N1 H21"
_cell_length_a       30
_cell_length_b       30
_cell_length_c       30
_cell_angle_alpha    90
_cell_angle_beta     90
_cell_angle_gamma    90

_space_group_name_H-M_alt    "P 1"
_space_group_IT_number       1

loop_
  _space_group_symop_operation_xyz
  'x, y, z'

loop_
  _atom_site_type_symbol
  _atom_site_label
  _atom_site_symmetry_multiplicity
  _atom_site_fract_x
  _atom_site_fract_y
  _atom_site_fract_z
  _atom_site_occupancy
  C   C1        1.0  0.18740  0.09137  0.01620  1.0000
  C   C2        1.0  0.18345  0.06468  0.97311  1.0000
  C   C3        1.0  0.15196  0.02320  0.97461  1.0000
  C   C4        1.0  0.16342  0.99470  0.01584  1.0000
  C   C5        1.0  0.15929  0.99983  0.92947  1.0000
  S   S1        1.0  0.16246  0.94453  0.92169  1.0000
  C   C6        1.0  0.10252  0.03814  0.97662  1.0000
  O   O1        1.0  0.09206  0.07762  0.97425  1.0000
  N   N1        1.0  0.07283  0.00286  0.97987  1.0000
  C   C7        1.0  0.02594  0.00482  0.98256  1.0000
  C   C8        1.0  0.00310  0.96420  0.98562  1.0000
  C   C9        1.0  0.95651  0.96289  0.98872  1.0000
  C   C10       1.0  0.93208  0.00235  0.98879  1.0000
  O   O2        1.0  0.88679  0.00615  0.99151  1.0000
  C   C11       1.0  0.86148  0.96769  0.00374  1.0000
  C   C12       1.0  0.86404  0.95858  0.05356  1.0000
  S   S2        1.0  0.81437  0.92879  0.06605  1.0000
  O   O3        1.0  0.79208  0.95105  0.10264  1.0000
  O   O4        1.0  0.82479  0.88166  0.06690  1.0000
  C   C13       1.0  0.78533  0.94094  0.01582  1.0000
  C   C14       1.0  0.81204  0.97832  0.99465  1.0000
  O   O5        1.0  0.80350  0.98012  0.94797  1.0000
  C   C15       1.0  0.95475  0.04284  0.98537  1.0000
  C   C16       1.0  0.00131  0.04418  0.98244  1.0000
  H   H1        1.0  0.20800  0.12096  0.01057  1.0000
  H   H2        1.0  0.20337  0.07193  0.04263  1.0000
  H   H3        1.0  0.15490  0.10256  0.02829  1.0000
  H   H4        1.0  0.17270  0.08747  0.94654  1.0000
  H   H5        1.0  0.21714  0.05382  0.96368  1.0000
  H   H6        1.0  0.19920  0.98738  0.01723  1.0000
  H   H7        1.0  0.14591  0.96270  0.01654  1.0000
  H   H8        1.0  0.15407  0.01179  0.04674  1.0000
  H   H9        1.0  0.16015  0.02227  0.90022  1.0000
  H   H10       1.0  0.08588  0.97166  0.97929  1.0000
  H   H11       1.0  0.02120  0.93276  0.98564  1.0000
  H   H12       1.0  0.94086  0.93035  0.99068  1.0000
  H   H13       1.0  0.87070  0.93874  0.98337  1.0000
  H   H14       1.0  0.89292  0.93840  0.06285  1.0000
  H   H15       1.0  0.86439  0.98945  0.07299  1.0000
  H   H16       1.0  0.75111  0.95084  0.02333  1.0000
  H   H17       1.0  0.78482  0.91101  0.99497  1.0000
  H   H18       1.0  0.80289  0.01072  0.00895  1.0000
  H   H19       1.0  0.82307  0.00303  0.93563  1.0000
  H   H20       1.0  0.93618  0.07400  0.98519  1.0000
  H   H21       1.0  0.01706  0.07666  0.98008  1.0000
