data_image0
_chemical_formula_structural       C4NC5NC3NC3H29
_chemical_formula_sum              "C15 N3 H29"
_cell_length_a       30
_cell_length_b       30
_cell_length_c       30
_cell_angle_alpha    90
_cell_angle_beta     90
_cell_angle_gamma    90

_space_group_name_H-M_alt    "P 1"
_space_group_IT_number       1

loop_
  _space_group_symop_operation_xyz
  'x, y, z'

loop_
  _atom_site_type_symbol
  _atom_site_label
  _atom_site_symmetry_multiplicity
  _atom_site_fract_x
  _atom_site_fract_y
  _atom_site_fract_z
  _atom_site_occupancy
  C   C1        1.0  0.12879  0.06645  0.01298  1.0000
  C   C2        1.0  0.08912  0.03729  0.02571  1.0000
  C   C3        1.0  0.09064  0.99030  0.00450  1.0000
  C   C4        1.0  0.08531  0.99181  0.95370  1.0000
  N   N1        1.0  0.06130  0.95903  0.02874  1.0000
  C   C5        1.0  0.07486  0.91222  0.02296  1.0000
  C   C6        1.0  0.04357  0.89206  0.98856  1.0000
  C   C7        1.0  0.00503  0.92478  0.98443  1.0000
  C   C8        1.0  0.01233  0.95856  0.02176  1.0000
  C   C9        1.0  0.98717  0.00346  0.01734  1.0000
  N   N2        1.0  0.93794  0.00057  0.01800  1.0000
  C   C10       1.0  0.91765  0.03521  0.04638  1.0000
  C   C11       1.0  0.92059  0.08345  0.02984  1.0000
  C   C12       1.0  0.90448  0.11434  0.06426  1.0000
  N   N3        1.0  0.89168  0.13886  0.09130  1.0000
  C   C13       1.0  0.91597  0.99042  0.97512  1.0000
  C   C14       1.0  0.92966  0.01920  0.93506  1.0000
  C   C15       1.0  0.86486  0.98896  0.97839  1.0000
  H   H1        1.0  0.12748  0.09795  0.03137  1.0000
  H   H2        1.0  0.12869  0.07451  0.97742  1.0000
  H   H3        1.0  0.16034  0.05003  0.02109  1.0000
  H   H4        1.0  0.08886  0.03417  0.06216  1.0000
  H   H5        1.0  0.05885  0.05520  0.01625  1.0000
  H   H6        1.0  0.12489  0.97879  0.01066  1.0000
  H   H7        1.0  0.11148  0.01220  0.93850  1.0000
  H   H8        1.0  0.08856  0.95865  0.93893  1.0000
  H   H9        1.0  0.05334  0.00588  0.94345  1.0000
  H   H10       1.0  0.10993  0.90763  0.01385  1.0000
  H   H11       1.0  0.07029  0.89503  0.05492  1.0000
  H   H12       1.0  0.03187  0.85921  0.99938  1.0000
  H   H13       1.0  0.06007  0.88779  0.95628  1.0000
  H   H14       1.0  0.97338  0.90704  0.98818  1.0000
  H   H15       1.0  0.00543  0.94052  0.95150  1.0000
  H   H16       1.0  0.99883  0.94328  0.05230  1.0000
  H   H17       1.0  0.99774  0.02299  0.04645  1.0000
  H   H18       1.0  0.99845  0.02251  0.98850  1.0000
  H   H19       1.0  0.93321  0.03302  0.07951  1.0000
  H   H20       1.0  0.88272  0.02680  0.05322  1.0000
  H   H21       1.0  0.95499  0.09205  0.02114  1.0000
  H   H22       1.0  0.90021  0.08789  0.99994  1.0000
  H   H23       1.0  0.92525  0.95626  0.96642  1.0000
  H   H24       1.0  0.96477  0.01453  0.92642  1.0000
  H   H25       1.0  0.91047  0.00970  0.90545  1.0000
  H   H26       1.0  0.92392  0.05469  0.94068  1.0000
  H   H27       1.0  0.85055  0.97492  0.94784  1.0000
  H   H28       1.0  0.85042  0.02218  0.98288  1.0000
  H   H29       1.0  0.85407  0.96765  0.00602  1.0000
