data_image0
_chemical_formula_structural       C3NC2SO2NC2NC2F3C9H26
_chemical_formula_sum              "C18 N3 S1 O2 F3 H26"
_cell_length_a       30
_cell_length_b       30
_cell_length_c       30
_cell_angle_alpha    90
_cell_angle_beta     90
_cell_angle_gamma    90

_space_group_name_H-M_alt    "P 1"
_space_group_IT_number       1

loop_
  _space_group_symop_operation_xyz
  'x, y, z'

loop_
  _atom_site_type_symbol
  _atom_site_label
  _atom_site_symmetry_multiplicity
  _atom_site_fract_x
  _atom_site_fract_y
  _atom_site_fract_z
  _atom_site_occupancy
  C   C1        1.0  0.09648  0.01402  0.07984  1.0000
  C   C2        1.0  0.08736  0.97387  0.05021  1.0000
  C   C3        1.0  0.10219  0.98190  0.00223  1.0000
  N   N1        1.0  0.07627  0.98281  0.96798  1.0000
  C   C4        1.0  0.02760  0.97599  0.97013  1.0000
  C   C5        1.0  0.01345  0.96032  0.92364  1.0000
  S   S1        1.0  0.99376  0.02553  0.98589  1.0000
  O   O1        1.0  0.99963  0.03481  0.03295  1.0000
  O   O2        1.0  0.00072  0.06033  0.95313  1.0000
  N   N2        1.0  0.94035  0.00614  0.97983  1.0000
  C   C6        1.0  0.92456  0.97567  0.01601  1.0000
  C   C7        1.0  0.89807  0.00099  0.05207  1.0000
  N   N3        1.0  0.85999  0.02726  0.03535  1.0000
  C   C8        1.0  0.81651  0.01297  0.05407  1.0000
  C   C9        1.0  0.79681  0.96693  0.04230  1.0000
  F   F1        1.0  0.76061  0.95821  0.06774  1.0000
  F   F2        1.0  0.82651  0.93373  0.04923  1.0000
  F   F3        1.0  0.78378  0.96490  0.99922  1.0000
  C   C10       1.0  0.85973  0.03031  0.98638  1.0000
  C   C11       1.0  0.90644  0.04089  0.96670  1.0000
  C   C12       1.0  0.90318  0.04199  0.91583  1.0000
  C   C13       1.0  0.15103  0.98938  0.99379  1.0000
  C   C14       1.0  0.16369  0.01566  0.95727  1.0000
  C   C15       1.0  0.20869  0.02337  0.94825  1.0000
  C   C16       1.0  0.24135  0.00471  0.97550  1.0000
  C   C17       1.0  0.22906  0.97826  0.01168  1.0000
  C   C18       1.0  0.18403  0.97050  0.02083  1.0000
  H   H1        1.0  0.13220  0.01883  0.08539  1.0000
  H   H2        1.0  0.08080  0.00941  0.11246  1.0000
  H   H3        1.0  0.08347  0.04471  0.06504  1.0000
  H   H4        1.0  0.05184  0.96632  0.05187  1.0000
  H   H5        1.0  0.10412  0.94424  0.06334  1.0000
  H   H6        1.0  0.01924  0.94954  0.99378  1.0000
  H   H7        1.0  0.03271  0.93098  0.91355  1.0000
  H   H8        1.0  0.01910  0.98634  0.89865  1.0000
  H   H9        1.0  0.97815  0.95124  0.92260  1.0000
  H   H10       1.0  0.95258  0.95811  0.03143  1.0000
  H   H11       1.0  0.90379  0.94977  0.00069  1.0000
  H   H12       1.0  0.92044  0.02458  0.06875  1.0000
  H   H13       1.0  0.88788  0.97733  0.07799  1.0000
  H   H14       1.0  0.81904  0.01499  0.09052  1.0000
  H   H15       1.0  0.79165  0.03824  0.04503  1.0000
  H   H16       1.0  0.83641  0.05662  0.97633  1.0000
  H   H17       1.0  0.84771  0.99911  0.97159  1.0000
  H   H18       1.0  0.91686  0.07364  0.97921  1.0000
  H   H19       1.0  0.87866  0.06676  0.90498  1.0000
  H   H20       1.0  0.93506  0.05049  0.90035  1.0000
  H   H21       1.0  0.89309  0.00947  0.90260  1.0000
  H   H22       1.0  0.13851  0.03047  0.93576  1.0000
  H   H23       1.0  0.21815  0.04391  0.91994  1.0000
  H   H24       1.0  0.27639  0.01069  0.96844  1.0000
  H   H25       1.0  0.25461  0.96355  0.03276  1.0000
  H   H26       1.0  0.17566  0.94934  0.04894  1.0000
