data_image0
_chemical_formula_structural       C4NCOC2OC4BrC2H18
_chemical_formula_sum              "C13 N1 O2 Br1 H18"
_cell_length_a       30
_cell_length_b       30
_cell_length_c       30
_cell_angle_alpha    90
_cell_angle_beta     90
_cell_angle_gamma    90

_space_group_name_H-M_alt    "P 1"
_space_group_IT_number       1

loop_
  _space_group_symop_operation_xyz
  'x, y, z'

loop_
  _atom_site_type_symbol
  _atom_site_label
  _atom_site_symmetry_multiplicity
  _atom_site_fract_x
  _atom_site_fract_y
  _atom_site_fract_z
  _atom_site_occupancy
  C   C1        1.0  0.83637  0.05234  0.99201  1.0000
  C   C2        1.0  0.88387  0.04028  0.00507  1.0000
  C   C3        1.0  0.90076  0.99710  0.98336  1.0000
  C   C4        1.0  0.87473  0.95604  0.99862  1.0000
  N   N1        1.0  0.94790  0.99135  0.99355  1.0000
  C   C5        1.0  0.97666  0.96837  0.96626  1.0000
  O   O1        1.0  0.96590  0.95281  0.92998  1.0000
  C   C6        1.0  0.02297  0.96209  0.98526  1.0000
  C   C7        1.0  0.04353  0.00641  0.99946  1.0000
  O   O2        1.0  0.02427  0.02018  0.04107  1.0000
  C   C8        1.0  0.09363  0.00318  0.00509  1.0000
  C   C9        1.0  0.11244  0.97730  0.03929  1.0000
  C   C10       1.0  0.15864  0.97440  0.04419  1.0000
  C   C11       1.0  0.18637  0.99732  0.01485  1.0000
  Br  Br1       1.0  0.24891  0.99343  0.02141  1.0000
  C   C12       1.0  0.16833  0.02307  0.98068  1.0000
  C   C13       1.0  0.12210  0.02597  0.97581  1.0000
  H   H1        1.0  0.82755  0.08499  0.00573  1.0000
  H   H2        1.0  0.81237  0.02814  0.00495  1.0000
  H   H3        1.0  0.83277  0.05401  0.95574  1.0000
  H   H4        1.0  0.88614  0.03782  0.04149  1.0000
  H   H5        1.0  0.90582  0.06789  0.99531  1.0000
  H   H6        1.0  0.89753  0.99994  0.94705  1.0000
  H   H7        1.0  0.83968  0.95801  0.98877  1.0000
  H   H8        1.0  0.88852  0.92561  0.98388  1.0000
  H   H9        1.0  0.87627  0.95224  0.03491  1.0000
  H   H10       1.0  0.95949  0.00067  0.02410  1.0000
  H   H11       1.0  0.04327  0.94634  0.95924  1.0000
  H   H12       1.0  0.02040  0.93876  0.01328  1.0000
  H   H13       1.0  0.03549  0.03255  0.97521  1.0000
  H   H14       1.0  0.04526  0.04094  0.05467  1.0000
  H   H15       1.0  0.09105  0.95922  0.06239  1.0000
  H   H16       1.0  0.17257  0.95419  0.07084  1.0000
  H   H17       1.0  0.18988  0.04091  0.95765  1.0000
  H   H18       1.0  0.10855  0.04610  0.94882  1.0000
