data_image0
_chemical_formula_structural       C4SCNC2ONC5O2C3OH22
_chemical_formula_sum              "C15 S1 N2 O4 H22"
_cell_length_a       30
_cell_length_b       30
_cell_length_c       30
_cell_angle_alpha    90
_cell_angle_beta     90
_cell_angle_gamma    90

_space_group_name_H-M_alt    "P 1"
_space_group_IT_number       1

loop_
  _space_group_symop_operation_xyz
  'x, y, z'

loop_
  _atom_site_type_symbol
  _atom_site_label
  _atom_site_symmetry_multiplicity
  _atom_site_fract_x
  _atom_site_fract_y
  _atom_site_fract_z
  _atom_site_occupancy
  C   C1        1.0  0.88780  0.99200  0.07991  1.0000
  C   C2        1.0  0.87431  0.98009  0.03239  1.0000
  C   C3        1.0  0.91272  0.98642  0.99888  1.0000
  C   C4        1.0  0.90302  0.96786  0.95148  1.0000
  S   S1        1.0  0.85077  0.98469  0.92470  1.0000
  C   C5        1.0  0.81664  0.93656  0.93726  1.0000
  N   N1        1.0  0.93043  0.03284  0.99821  1.0000
  C   C6        1.0  0.90079  0.06840  0.98332  1.0000
  C   C7        1.0  0.97607  0.04206  0.99274  1.0000
  O   O1        1.0  0.98915  0.07536  0.97291  1.0000
  N   N2        1.0  0.00346  0.01107  0.01273  1.0000
  C   C8        1.0  0.05051  0.00926  0.01101  1.0000
  C   C9        1.0  0.07656  0.03482  0.98221  1.0000
  C   C10       1.0  0.12321  0.03237  0.98404  1.0000
  C   C11       1.0  0.14435  0.00403  0.01460  1.0000
  C   C12       1.0  0.19370  0.00040  0.01790  1.0000
  O   O2        1.0  0.21271  0.97457  0.04295  1.0000
  O   O3        1.0  0.21377  0.02937  0.98958  1.0000
  C   C13       1.0  0.26134  0.02800  0.99102  1.0000
  C   C14       1.0  0.11841  0.97756  0.04286  1.0000
  C   C15       1.0  0.07215  0.97994  0.04029  1.0000
  O   O4        1.0  0.04812  0.95159  0.06683  1.0000
  H   H1        1.0  0.91675  0.97251  0.09058  1.0000
  H   H2        1.0  0.86034  0.98489  0.10287  1.0000
  H   H3        1.0  0.89599  0.02741  0.08298  1.0000
  H   H4        1.0  0.86397  0.94503  0.03207  1.0000
  H   H5        1.0  0.84501  0.99984  0.02333  1.0000
  H   H6        1.0  0.93957  0.96484  0.01098  1.0000
  H   H7        1.0  0.93005  0.97781  0.92900  1.0000
  H   H8        1.0  0.90368  0.93135  0.95268  1.0000
  H   H9        1.0  0.81223  0.93272  0.97318  1.0000
  H   H10       1.0  0.83159  0.90638  0.92337  1.0000
  H   H11       1.0  0.78378  0.94108  0.92215  1.0000
  H   H12       1.0  0.91372  0.10068  0.99445  1.0000
  H   H13       1.0  0.86749  0.06433  0.99737  1.0000
  H   H14       1.0  0.89946  0.06871  0.94690  1.0000
  H   H15       1.0  0.99000  0.99685  0.04013  1.0000
  H   H16       1.0  0.06169  0.05744  0.95816  1.0000
  H   H17       1.0  0.14250  0.05310  0.96140  1.0000
  H   H18       1.0  0.27347  0.99501  0.98122  1.0000
  H   H19       1.0  0.27339  0.03688  0.02429  1.0000
  H   H20       1.0  0.27406  0.05250  0.96722  1.0000
  H   H21       1.0  0.13401  0.95484  0.06640  1.0000
  H   H22       1.0  0.02729  0.93654  0.04703  1.0000
