data_image0
_chemical_formula_structural       C6N2CNCOC8NCOSH28
_chemical_formula_sum              "C17 N4 O2 S1 H28"
_cell_length_a       30
_cell_length_b       30
_cell_length_c       30
_cell_angle_alpha    90
_cell_angle_beta     90
_cell_angle_gamma    90

_space_group_name_H-M_alt    "P 1"
_space_group_IT_number       1

loop_
  _space_group_symop_operation_xyz
  'x, y, z'

loop_
  _atom_site_type_symbol
  _atom_site_label
  _atom_site_symmetry_multiplicity
  _atom_site_fract_x
  _atom_site_fract_y
  _atom_site_fract_z
  _atom_site_occupancy
  C   C1        1.0  0.17379  0.04807  0.94703  1.0000
  C   C2        1.0  0.18126  0.00571  0.97413  1.0000
  C   C3        1.0  0.16245  0.00879  0.02180  1.0000
  C   C4        1.0  0.17994  0.97148  0.05266  1.0000
  C   C5        1.0  0.17227  0.92384  0.03687  1.0000
  C   C6        1.0  0.11235  0.01325  0.02437  1.0000
  N   N1        1.0  0.09220  0.04166  0.05121  1.0000
  N   N2        1.0  0.04629  0.03965  0.04779  1.0000
  C   C7        1.0  0.03355  0.00986  0.01861  1.0000
  N   N3        1.0  0.99197  0.99752  0.00493  1.0000
  C   C8        1.0  0.95352  0.01481  0.02347  1.0000
  O   O1        1.0  0.95197  0.04245  0.05360  1.0000
  C   C9        1.0  0.91073  0.99780  0.99964  1.0000
  C   C10       1.0  0.91126  0.01566  0.95054  1.0000
  C   C11       1.0  0.91253  0.06581  0.94648  1.0000
  C   C12       1.0  0.90557  0.08679  0.90132  1.0000
  C   C13       1.0  0.87072  0.09201  0.93687  1.0000
  C   C14       1.0  0.86769  0.01118  0.02367  1.0000
  C   C15       1.0  0.83370  0.97607  0.01004  1.0000
  C   C16       1.0  0.86051  0.93763  0.99035  1.0000
  N   N4        1.0  0.90813  0.94749  0.99774  1.0000
  C   C17       1.0  0.92474  0.92339  0.03677  1.0000
  O   O2        1.0  0.90536  0.93679  0.07729  1.0000
  S   S1        1.0  0.07587  0.98198  0.99282  1.0000
  H   H1        1.0  0.18862  0.07697  0.96365  1.0000
  H   H2        1.0  0.18939  0.04479  0.91420  1.0000
  H   H3        1.0  0.13833  0.05475  0.94186  1.0000
  H   H4        1.0  0.21733  0.99986  0.97596  1.0000
  H   H5        1.0  0.16711  0.97739  0.95592  1.0000
  H   H6        1.0  0.17570  0.03991  0.03604  1.0000
  H   H7        1.0  0.16529  0.97523  0.08597  1.0000
  H   H8        1.0  0.21600  0.97609  0.05682  1.0000
  H   H9        1.0  0.18711  0.91789  0.00411  1.0000
  H   H10       1.0  0.13682  0.91563  0.03535  1.0000
  H   H11       1.0  0.18776  0.90051  0.06029  1.0000
  H   H12       1.0  0.98956  0.97311  0.98191  1.0000
  H   H13       1.0  0.94050  0.00253  0.93288  1.0000
  H   H14       1.0  0.88229  0.00320  0.93201  1.0000
  H   H15       1.0  0.93774  0.08123  0.96735  1.0000
  H   H16       1.0  0.89789  0.06550  0.87314  1.0000
  H   H17       1.0  0.92553  0.11573  0.89288  1.0000
  H   H18       1.0  0.83951  0.07432  0.93265  1.0000
  H   H19       1.0  0.86724  0.12437  0.95263  1.0000
  H   H20       1.0  0.87174  0.01077  0.05999  1.0000
  H   H21       1.0  0.85604  0.04470  0.01532  1.0000
  H   H22       1.0  0.81057  0.98948  0.98516  1.0000
  H   H23       1.0  0.81410  0.96539  0.03892  1.0000
  H   H24       1.0  0.85436  0.93559  0.95437  1.0000
  H   H25       1.0  0.84992  0.90540  0.00396  1.0000
  H   H26       1.0  0.91931  0.88746  0.03261  1.0000
  H   H27       1.0  0.96088  0.92679  0.03996  1.0000
  H   H28       1.0  0.87501  0.92572  0.07758  1.0000
