data_image0
_chemical_formula_structural       C5O2C3OC3OC3H24
_chemical_formula_sum              "C14 O4 H24"
_cell_length_a       30
_cell_length_b       30
_cell_length_c       30
_cell_angle_alpha    90
_cell_angle_beta     90
_cell_angle_gamma    90

_space_group_name_H-M_alt    "P 1"
_space_group_IT_number       1

loop_
  _space_group_symop_operation_xyz
  'x, y, z'

loop_
  _atom_site_type_symbol
  _atom_site_label
  _atom_site_symmetry_multiplicity
  _atom_site_fract_x
  _atom_site_fract_y
  _atom_site_fract_z
  _atom_site_occupancy
  C   C1        1.0  0.88544  0.04808  0.02801  1.0000
  C   C2        1.0  0.88862  0.00533  0.00071  1.0000
  C   C3        1.0  0.93299  0.97840  0.00534  1.0000
  C   C4        1.0  0.93664  0.96237  0.05425  1.0000
  C   C5        1.0  0.92838  0.93815  0.97408  1.0000
  O   O1        1.0  0.91032  0.93797  0.93758  1.0000
  O   O2        1.0  0.94755  0.90048  0.98910  1.0000
  C   C6        1.0  0.97515  0.00673  0.99230  1.0000
  C   C7        1.0  0.97266  0.02743  0.94543  1.0000
  C   C8        1.0  0.01439  0.05440  0.93537  1.0000
  O   O3        1.0  0.05331  0.02747  0.93873  1.0000
  C   C9        1.0  0.06106  0.00858  0.98210  1.0000
  C   C10       1.0  0.10145  0.97748  0.97666  1.0000
  C   C11       1.0  0.11647  0.95743  0.02089  1.0000
  O   O4        1.0  0.10538  0.98465  0.05837  1.0000
  C   C12       1.0  0.10942  0.03089  0.04888  1.0000
  C   C13       1.0  0.07368  0.04555  0.01572  1.0000
  C   C14       1.0  0.01970  0.98107  0.99647  1.0000
  H   H1        1.0  0.88830  0.04159  0.06375  1.0000
  H   H2        1.0  0.85299  0.06383  0.02238  1.0000
  H   H3        1.0  0.91101  0.07221  0.01843  1.0000
  H   H4        1.0  0.88250  0.01382  0.96567  1.0000
  H   H5        1.0  0.86058  0.98375  0.01019  1.0000
  H   H6        1.0  0.96390  0.93864  0.05931  1.0000
  H   H7        1.0  0.90604  0.94536  0.06474  1.0000
  H   H8        1.0  0.94245  0.99024  0.07709  1.0000
  H   H9        1.0  0.94215  0.87889  0.96517  1.0000
  H   H10       1.0  0.97678  0.03448  0.01608  1.0000
  H   H11       1.0  0.94363  0.04924  0.94207  1.0000
  H   H12       1.0  0.96969  0.00096  0.92043  1.0000
  H   H13       1.0  0.01279  0.06703  0.90116  1.0000
  H   H14       1.0  0.01709  0.08343  0.95735  1.0000
  H   H15       1.0  0.12915  0.99671  0.96230  1.0000
  H   H16       1.0  0.09506  0.95108  0.95216  1.0000
  H   H17       1.0  0.15252  0.95164  0.02072  1.0000
  H   H18       1.0  0.10044  0.92506  0.02614  1.0000
  H   H19       1.0  0.14298  0.03784  0.03613  1.0000
  H   H20       1.0  0.10579  0.04942  0.08010  1.0000
  H   H21       1.0  0.04416  0.05600  0.03450  1.0000
  H   H22       1.0  0.08547  0.07564  0.99860  1.0000
  H   H23       1.0  0.02410  0.96910  0.03063  1.0000
  H   H24       1.0  0.01786  0.95158  0.97493  1.0000
