data_image0
_chemical_formula_structural       C4SCNC2ONC5ClC2H21
_chemical_formula_sum              "C14 S1 N2 O1 Cl1 H21"
_cell_length_a       30
_cell_length_b       30
_cell_length_c       30
_cell_angle_alpha    90
_cell_angle_beta     90
_cell_angle_gamma    90

_space_group_name_H-M_alt    "P 1"
_space_group_IT_number       1

loop_
  _space_group_symop_operation_xyz
  'x, y, z'

loop_
  _atom_site_type_symbol
  _atom_site_label
  _atom_site_symmetry_multiplicity
  _atom_site_fract_x
  _atom_site_fract_y
  _atom_site_fract_z
  _atom_site_occupancy
  C   C1        1.0  0.86921  0.93984  0.98872  1.0000
  C   C2        1.0  0.90297  0.96211  0.95817  1.0000
  C   C3        1.0  0.93252  0.99749  0.98130  1.0000
  C   C4        1.0  0.90623  0.03867  0.99793  1.0000
  S   S1        1.0  0.88733  0.03476  0.05584  1.0000
  C   C5        1.0  0.93953  0.04609  0.08394  1.0000
  N   N1        1.0  0.96939  0.01113  0.95071  1.0000
  C   C6        1.0  0.95701  0.03435  0.90976  1.0000
  C   C7        1.0  0.01065  0.98972  0.94939  1.0000
  O   O1        1.0  0.03461  0.98967  0.91620  1.0000
  N   N2        1.0  0.02268  0.96886  0.98818  1.0000
  C   C8        1.0  0.06540  0.94682  0.99220  1.0000
  C   C9        1.0  0.09922  0.97693  0.01412  1.0000
  C   C10       1.0  0.12180  0.00925  0.98895  1.0000
  C   C11       1.0  0.15247  0.03782  0.00919  1.0000
  C   C12       1.0  0.16061  0.03433  0.05476  1.0000
  Cl  Cl1       1.0  0.19831  0.06955  0.07979  1.0000
  C   C13       1.0  0.13829  0.00257  0.08027  1.0000
  C   C14       1.0  0.10757  0.97400  0.06003  1.0000
  H   H1        1.0  0.85277  0.91238  0.97117  1.0000
  H   H2        1.0  0.84320  0.96316  0.99911  1.0000
  H   H3        1.0  0.88531  0.92611  0.01843  1.0000
  H   H4        1.0  0.88522  0.97693  0.92986  1.0000
  H   H5        1.0  0.92450  0.93602  0.94422  1.0000
  H   H6        1.0  0.94743  0.98096  0.01011  1.0000
  H   H7        1.0  0.87680  0.04424  0.97704  1.0000
  H   H8        1.0  0.92654  0.06895  0.99567  1.0000
  H   H9        1.0  0.93384  0.04631  0.11994  1.0000
  H   H10       1.0  0.96418  0.02037  0.07641  1.0000
  H   H11       1.0  0.95243  0.07873  0.07414  1.0000
  H   H12       1.0  0.98605  0.05110  0.89534  1.0000
  H   H13       1.0  0.93158  0.05953  0.91643  1.0000
  H   H14       1.0  0.94441  0.01010  0.88562  1.0000
  H   H15       1.0  0.01229  0.98436  0.01606  1.0000
  H   H16       1.0  0.07752  0.93549  0.95966  1.0000
  H   H17       1.0  0.06009  0.91703  0.01264  1.0000
  H   H18       1.0  0.11535  0.01234  0.95333  1.0000
  H   H19       1.0  0.16972  0.06265  0.98923  1.0000
  H   H20       1.0  0.14465  0.99989  0.11583  1.0000
  H   H21       1.0  0.09033  0.94938  0.08032  1.0000
