data_image0
_chemical_formula_structural       C4NCONCOC6ONC6NCOH22
_chemical_formula_sum              "C19 N4 O4 H22"
_cell_length_a       30
_cell_length_b       30
_cell_length_c       30
_cell_angle_alpha    90
_cell_angle_beta     90
_cell_angle_gamma    90

_space_group_name_H-M_alt    "P 1"
_space_group_IT_number       1

loop_
  _space_group_symop_operation_xyz
  'x, y, z'

loop_
  _atom_site_type_symbol
  _atom_site_label
  _atom_site_symmetry_multiplicity
  _atom_site_fract_x
  _atom_site_fract_y
  _atom_site_fract_z
  _atom_site_occupancy
  C   C1        1.0  0.22997  0.05505  0.97758  1.0000
  C   C2        1.0  0.18473  0.06669  0.96200  1.0000
  C   C3        1.0  0.14711  0.06117  0.99419  1.0000
  C   C4        1.0  0.15348  0.08828  0.03550  1.0000
  N   N1        1.0  0.12997  0.01730  0.00041  1.0000
  C   C5        1.0  0.15420  0.98409  0.02375  1.0000
  O   O1        1.0  0.19197  0.99355  0.03918  1.0000
  N   N2        1.0  0.13623  0.94010  0.03002  1.0000
  C   C6        1.0  0.09727  0.92881  0.01474  1.0000
  O   O2        1.0  0.08502  0.88554  0.02350  1.0000
  C   C7        1.0  0.06892  0.95924  0.99041  1.0000
  C   C8        1.0  0.02839  0.95221  0.97663  1.0000
  C   C9        1.0  0.00270  0.91063  0.98369  1.0000
  C   C10       1.0  0.96371  0.90730  0.96921  1.0000
  C   C11       1.0  0.92005  0.90357  0.95300  1.0000
  C   C12       1.0  0.89018  0.93999  0.97222  1.0000
  O   O3        1.0  0.91181  0.97272  0.98778  1.0000
  N   N3        1.0  0.84374  0.93830  0.97311  1.0000
  C   C13       1.0  0.81616  0.97318  0.98974  1.0000
  C   C14       1.0  0.82962  0.01431  0.00276  1.0000
  C   C15       1.0  0.79995  0.04597  0.02089  1.0000
  C   C16       1.0  0.81773  0.09027  0.03338  1.0000
  C   C17       1.0  0.75564  0.03568  0.02596  1.0000
  C   C18       1.0  0.74296  0.99337  0.01230  1.0000
  N   N4        1.0  0.77185  0.96403  0.99517  1.0000
  C   C19       1.0  0.08774  0.00502  0.98383  1.0000
  O   O4        1.0  0.06432  0.03272  0.96262  1.0000
  H   H1        1.0  0.23933  0.02077  0.96856  1.0000
  H   H2        1.0  0.23819  0.06493  0.01237  1.0000
  H   H3        1.0  0.25398  0.07644  0.95722  1.0000
  H   H4        1.0  0.17809  0.04719  0.93034  1.0000
  H   H5        1.0  0.18561  0.10228  0.94871  1.0000
  H   H6        1.0  0.11827  0.07967  0.97577  1.0000
  H   H7        1.0  0.12529  0.08433  0.05865  1.0000
  H   H8        1.0  0.15170  0.12449  0.02512  1.0000
  H   H9        1.0  0.18526  0.08468  0.05255  1.0000
  H   H10       1.0  0.08682  0.87053  0.05382  1.0000
  H   H11       1.0  0.01093  0.97777  0.95838  1.0000
  H   H12       1.0  0.01983  0.88390  0.00189  1.0000
  H   H13       1.0  0.96018  0.86321  0.98737  1.0000
  H   H14       1.0  0.91714  0.90916  0.91524  1.0000
  H   H15       1.0  0.90063  0.87304  0.95890  1.0000
  H   H16       1.0  0.82943  0.90928  0.95938  1.0000
  H   H17       1.0  0.86429  0.02371  0.99879  1.0000
  H   H18       1.0  0.85380  0.08540  0.04141  1.0000
  H   H19       1.0  0.79937  0.10704  0.05974  1.0000
  H   H20       1.0  0.81786  0.10980  0.00105  1.0000
  H   H21       1.0  0.73115  0.05811  0.03957  1.0000
  H   H22       1.0  0.70745  0.98518  0.01688  1.0000
