data_image0
_chemical_formula_structural       C4NCOC3NCOC9H26
_chemical_formula_sum              "C18 N2 O2 H26"
_cell_length_a       30
_cell_length_b       30
_cell_length_c       30
_cell_angle_alpha    90
_cell_angle_beta     90
_cell_angle_gamma    90

_space_group_name_H-M_alt    "P 1"
_space_group_IT_number       1

loop_
  _space_group_symop_operation_xyz
  'x, y, z'

loop_
  _atom_site_type_symbol
  _atom_site_label
  _atom_site_symmetry_multiplicity
  _atom_site_fract_x
  _atom_site_fract_y
  _atom_site_fract_z
  _atom_site_occupancy
  C   C1        1.0  0.15766  0.08154  0.99675  1.0000
  C   C2        1.0  0.17848  0.03810  0.98066  1.0000
  C   C3        1.0  0.16361  0.99606  0.00592  1.0000
  C   C4        1.0  0.17254  0.99881  0.05600  1.0000
  N   N1        1.0  0.11678  0.98619  0.99744  1.0000
  C   C5        1.0  0.10024  0.94344  0.99978  1.0000
  O   O1        1.0  0.12374  0.91061  0.00653  1.0000
  C   C6        1.0  0.05002  0.93902  0.99409  1.0000
  C   C7        1.0  0.03377  0.95886  0.95002  1.0000
  C   C8        1.0  0.98347  0.95348  0.94529  1.0000
  N   N2        1.0  0.95935  0.97072  0.98407  1.0000
  C   C9        1.0  0.91562  0.98567  0.97658  1.0000
  O   O2        1.0  0.90017  0.98834  0.93863  1.0000
  C   C10       1.0  0.88874  0.99894  0.01772  1.0000
  C   C11       1.0  0.84364  0.01909  0.00776  1.0000
  C   C12       1.0  0.83911  0.06517  0.00147  1.0000
  C   C13       1.0  0.79746  0.08373  0.99222  1.0000
  C   C14       1.0  0.76001  0.05644  0.98896  1.0000
  C   C15       1.0  0.76419  0.01055  0.99478  1.0000
  C   C16       1.0  0.80581  0.99190  0.00404  1.0000
  C   C17       1.0  0.97476  0.95475  0.02756  1.0000
  C   C18       1.0  0.02499  0.96014  0.03316  1.0000
  H   H1        1.0  0.16706  0.08892  0.03120  1.0000
  H   H2        1.0  0.12128  0.08069  0.99459  1.0000
  H   H3        1.0  0.16933  0.10926  0.97606  1.0000
  H   H4        1.0  0.17079  0.03404  0.94513  1.0000
  H   H5        1.0  0.21483  0.04118  0.98319  1.0000
  H   H6        1.0  0.18314  0.96807  0.99275  1.0000
  H   H7        1.0  0.15108  0.02350  0.07219  1.0000
  H   H8        1.0  0.20734  0.00760  0.06258  1.0000
  H   H9        1.0  0.16589  0.96672  0.07211  1.0000
  H   H10       1.0  0.09498  0.01188  0.99780  1.0000
  H   H11       1.0  0.04279  0.90310  0.99376  1.0000
  H   H12       1.0  0.04199  0.99445  0.94818  1.0000
  H   H13       1.0  0.05069  0.94278  0.92190  1.0000
  H   H14       1.0  0.97460  0.91818  0.94178  1.0000
  H   H15       1.0  0.97258  0.97046  0.91486  1.0000
  H   H16       1.0  0.90811  0.02315  0.03710  1.0000
  H   H17       1.0  0.88394  0.96932  0.03859  1.0000
  H   H18       1.0  0.86805  0.08691  0.00347  1.0000
  H   H19       1.0  0.79428  0.11948  0.98728  1.0000
  H   H20       1.0  0.72764  0.07089  0.98155  1.0000
  H   H21       1.0  0.73508  0.98920  0.99182  1.0000
  H   H22       1.0  0.80855  0.95598  0.00801  1.0000
  H   H23       1.0  0.95811  0.97239  0.05471  1.0000
  H   H24       1.0  0.96522  0.91955  0.03014  1.0000
  H   H25       1.0  0.03288  0.99577  0.03558  1.0000
  H   H26       1.0  0.03562  0.94497  0.06467  1.0000
