data_image0
_chemical_formula_structural       C6NC3OC3NCOC3NCOH31
_chemical_formula_sum              "C17 N3 O3 H31"
_cell_length_a       30
_cell_length_b       30
_cell_length_c       30
_cell_angle_alpha    90
_cell_angle_beta     90
_cell_angle_gamma    90

_space_group_name_H-M_alt    "P 1"
_space_group_IT_number       1

loop_
  _space_group_symop_operation_xyz
  'x, y, z'

loop_
  _atom_site_type_symbol
  _atom_site_label
  _atom_site_symmetry_multiplicity
  _atom_site_fract_x
  _atom_site_fract_y
  _atom_site_fract_z
  _atom_site_occupancy
  C   C1        1.0  0.95786  0.08242  0.01026  1.0000
  C   C2        1.0  0.97772  0.06226  0.96812  1.0000
  C   C3        1.0  0.98471  0.01120  0.97080  1.0000
  C   C4        1.0  0.02447  0.99863  0.94021  1.0000
  C   C5        1.0  0.04130  0.95051  0.94361  1.0000
  C   C6        1.0  0.05665  0.93420  0.98978  1.0000
  N   N1        1.0  0.09567  0.95486  0.01084  1.0000
  C   C7        1.0  0.08553  0.99462  0.03718  1.0000
  C   C8        1.0  0.12585  0.00896  0.06477  1.0000
  C   C9        1.0  0.16654  0.01576  0.03517  1.0000
  O   O1        1.0  0.20412  0.02572  0.06248  1.0000
  C   C10       1.0  0.17542  0.97408  0.00749  1.0000
  C   C11       1.0  0.13393  0.96059  0.98124  1.0000
  C   C12       1.0  0.94257  0.98437  0.95705  1.0000
  N   N2        1.0  0.90374  0.98975  0.98647  1.0000
  C   C13       1.0  0.86895  0.01490  0.96783  1.0000
  O   O2        1.0  0.87357  0.03715  0.93345  1.0000
  C   C14       1.0  0.82358  0.01363  0.98897  1.0000
  C   C15       1.0  0.82403  0.03010  0.03642  1.0000
  C   C16       1.0  0.83592  0.99193  0.06666  1.0000
  N   N3        1.0  0.88090  0.97586  0.06207  1.0000
  C   C17       1.0  0.90835  0.96856  0.02740  1.0000
  O   O3        1.0  0.93951  0.94280  0.03540  1.0000
  H   H1        1.0  0.92408  0.07069  0.01667  1.0000
  H   H2        1.0  0.95638  0.11876  0.00712  1.0000
  H   H3        1.0  0.97842  0.07459  0.03937  1.0000
  H   H4        1.0  0.00991  0.07884  0.96297  1.0000
  H   H5        1.0  0.95713  0.07091  0.93922  1.0000
  H   H6        1.0  0.99370  0.00297  0.00518  1.0000
  H   H7        1.0  0.01489  0.00481  0.90542  1.0000
  H   H8        1.0  0.05261  0.02101  0.94656  1.0000
  H   H9        1.0  0.01520  0.92781  0.93180  1.0000
  H   H10       1.0  0.06860  0.94630  0.91964  1.0000
  H   H11       1.0  0.06485  0.89872  0.98588  1.0000
  H   H12       1.0  0.02844  0.93423  0.01299  1.0000
  H   H13       1.0  0.05802  0.98778  0.06026  1.0000
  H   H14       1.0  0.07526  0.02246  0.01598  1.0000
  H   H15       1.0  0.11838  0.03980  0.08290  1.0000
  H   H16       1.0  0.13316  0.98389  0.09043  1.0000
  H   H17       1.0  0.16103  0.04441  0.01315  1.0000
  H   H18       1.0  0.23002  0.02781  0.04313  1.0000
  H   H19       1.0  0.18608  0.94669  0.02931  1.0000
  H   H20       1.0  0.20335  0.98001  0.98466  1.0000
  H   H21       1.0  0.12718  0.98592  0.95576  1.0000
  H   H22       1.0  0.14118  0.92924  0.96389  1.0000
  H   H23       1.0  0.95039  0.94868  0.95665  1.0000
  H   H24       1.0  0.93397  0.99241  0.92244  1.0000
  H   H25       1.0  0.80985  0.97994  0.98563  1.0000
  H   H26       1.0  0.80192  0.03562  0.96932  1.0000
  H   H27       1.0  0.79063  0.04199  0.04528  1.0000
  H   H28       1.0  0.84712  0.05806  0.04079  1.0000
  H   H29       1.0  0.83219  0.00229  0.10148  1.0000
  H   H30       1.0  0.81363  0.96344  0.06152  1.0000
  H   H31       1.0  0.89156  0.95707  0.08810  1.0000
