data_image0
_chemical_formula_structural       C5NC2ONC4OC2OC6H28
_chemical_formula_sum              "C19 N2 O3 H28"
_cell_length_a       30
_cell_length_b       30
_cell_length_c       30
_cell_angle_alpha    90
_cell_angle_beta     90
_cell_angle_gamma    90

_space_group_name_H-M_alt    "P 1"
_space_group_IT_number       1

loop_
  _space_group_symop_operation_xyz
  'x, y, z'

loop_
  _atom_site_type_symbol
  _atom_site_label
  _atom_site_symmetry_multiplicity
  _atom_site_fract_x
  _atom_site_fract_y
  _atom_site_fract_z
  _atom_site_occupancy
  C   C1        1.0  0.82119  0.00753  0.01958  1.0000
  C   C2        1.0  0.84147  0.03349  0.98087  1.0000
  C   C3        1.0  0.87943  0.01028  0.95319  1.0000
  C   C4        1.0  0.87286  0.02722  0.90457  1.0000
  C   C5        1.0  0.87303  0.95929  0.95175  1.0000
  N   N1        1.0  0.92454  0.02375  0.96944  1.0000
  C   C6        1.0  0.96221  0.01511  0.93881  1.0000
  C   C7        1.0  0.00658  0.03551  0.95493  1.0000
  O   O1        1.0  0.01252  0.07603  0.95582  1.0000
  N   N2        1.0  0.03717  0.00330  0.96780  1.0000
  C   C8        1.0  0.08098  0.00977  0.98333  1.0000
  C   C9        1.0  0.10185  0.05125  0.98625  1.0000
  C   C10       1.0  0.14564  0.05470  0.00182  1.0000
  C   C11       1.0  0.16855  0.01654  0.01469  1.0000
  O   O2        1.0  0.21305  0.02243  0.02802  1.0000
  C   C12       1.0  0.22978  0.99861  0.06425  1.0000
  C   C13       1.0  0.27813  0.01004  0.06990  1.0000
  O   O3        1.0  0.20942  0.97253  0.08813  1.0000
  C   C14       1.0  0.14853  0.97485  0.01142  1.0000
  C   C15       1.0  0.10472  0.97166  0.99600  1.0000
  C   C16       1.0  0.93503  0.01682  0.01666  1.0000
  C   C17       1.0  0.94774  0.97000  0.02940  1.0000
  C   C18       1.0  0.92862  0.94870  0.07088  1.0000
  C   C19       1.0  0.97669  0.96290  0.07020  1.0000
  H   H1        1.0  0.79910  0.02929  0.03876  1.0000
  H   H2        1.0  0.80104  0.97960  0.00740  1.0000
  H   H3        1.0  0.84602  0.99431  0.04243  1.0000
  H   H4        1.0  0.85355  0.06581  0.99323  1.0000
  H   H5        1.0  0.81350  0.04206  0.95880  1.0000
  H   H6        1.0  0.83850  0.02177  0.89326  1.0000
  H   H7        1.0  0.87972  0.06301  0.90191  1.0000
  H   H8        1.0  0.89410  0.00948  0.88075  1.0000
  H   H9        1.0  0.84055  0.95072  0.93720  1.0000
  H   H10       1.0  0.89850  0.94301  0.93121  1.0000
  H   H11       1.0  0.87426  0.94407  0.98483  1.0000
  H   H12       1.0  0.95677  0.03073  0.90634  1.0000
  H   H13       1.0  0.96627  0.97944  0.93264  1.0000
  H   H14       1.0  0.02615  0.97141  0.96821  1.0000
  H   H15       1.0  0.08499  0.08173  0.97655  1.0000
  H   H16       1.0  0.16158  0.08710  0.00363  1.0000
  H   H17       1.0  0.29645  0.00147  0.03951  1.0000
  H   H18       1.0  0.29195  0.99065  0.09758  1.0000
  H   H19       1.0  0.28168  0.04552  0.07749  1.0000
  H   H20       1.0  0.16626  0.94475  0.02090  1.0000
  H   H21       1.0  0.08953  0.93881  0.99415  1.0000
  H   H22       1.0  0.96250  0.03914  0.02591  1.0000
  H   H23       1.0  0.90796  0.02884  0.03783  1.0000
  H   H24       1.0  0.95396  0.94814  0.00129  1.0000
  H   H25       1.0  0.90584  0.96770  0.09153  1.0000
  H   H26       1.0  0.92148  0.91323  0.06963  1.0000
  H   H27       1.0  0.00219  0.93712  0.06890  1.0000
  H   H28       1.0  0.98586  0.99153  0.09041  1.0000
