data_image0
_chemical_formula_structural       C3O2C2NC2H11
_chemical_formula_sum              "C7 O2 N1 H11"
_cell_length_a       30
_cell_length_b       30
_cell_length_c       30
_cell_angle_alpha    90
_cell_angle_beta     90
_cell_angle_gamma    90

_space_group_name_H-M_alt    "P 1"
_space_group_IT_number       1

loop_
  _space_group_symop_operation_xyz
  'x, y, z'

loop_
  _atom_site_type_symbol
  _atom_site_label
  _atom_site_symmetry_multiplicity
  _atom_site_fract_x
  _atom_site_fract_y
  _atom_site_fract_z
  _atom_site_occupancy
  C   C1        1.0  0.11531  0.00893  0.04029  1.0000
  C   C2        1.0  0.07396  0.01933  0.01302  1.0000
  C   C3        1.0  0.03360  0.99432  0.02966  1.0000
  O   O1        1.0  0.03272  0.96909  0.06160  1.0000
  O   O2        1.0  0.99774  0.00435  0.00369  1.0000
  C   C4        1.0  0.95720  0.98115  0.01523  1.0000
  C   C5        1.0  0.95678  0.93567  0.99631  1.0000
  N   N1        1.0  0.95601  0.90017  0.98087  1.0000
  C   C6        1.0  0.91766  0.00873  0.99787  1.0000
  C   C7        1.0  0.91920  0.01852  0.94798  1.0000
  H   H1        1.0  0.14400  0.02744  0.02744  1.0000
  H   H2        1.0  0.12321  0.97331  0.03906  1.0000
  H   H3        1.0  0.11057  0.01810  0.07531  1.0000
  H   H4        1.0  0.06693  0.05511  0.01482  1.0000
  H   H5        1.0  0.07978  0.01001  0.97822  1.0000
  H   H6        1.0  0.95382  0.97935  0.05162  1.0000
  H   H7        1.0  0.91740  0.04088  0.01532  1.0000
  H   H8        1.0  0.88620  0.99188  0.00580  1.0000
  H   H9        1.0  0.91816  0.98783  0.92830  1.0000
  H   H10       1.0  0.89041  0.03882  0.93842  1.0000
  H   H11       1.0  0.94931  0.03700  0.93894  1.0000
