data_image0
_chemical_formula_structural       C3NCOCSO2C9H21
_chemical_formula_sum              "C14 N1 O3 S1 H21"
_cell_length_a       30
_cell_length_b       30
_cell_length_c       30
_cell_angle_alpha    90
_cell_angle_beta     90
_cell_angle_gamma    90

_space_group_name_H-M_alt    "P 1"
_space_group_IT_number       1

loop_
  _space_group_symop_operation_xyz
  'x, y, z'

loop_
  _atom_site_type_symbol
  _atom_site_label
  _atom_site_symmetry_multiplicity
  _atom_site_fract_x
  _atom_site_fract_y
  _atom_site_fract_z
  _atom_site_occupancy
  C   C1        1.0  0.92199  0.03631  0.08260  1.0000
  C   C2        1.0  0.91663  0.98606  0.07718  1.0000
  C   C3        1.0  0.93816  0.96593  0.03508  1.0000
  N   N1        1.0  0.98648  0.97113  0.03590  1.0000
  C   C4        1.0  0.01429  0.94052  0.01578  1.0000
  O   O1        1.0  0.00146  0.90408  0.00211  1.0000
  C   C5        1.0  0.06299  0.95201  0.01612  1.0000
  S   S1        1.0  0.07253  0.00346  0.98897  1.0000
  O   O2        1.0  0.05271  0.03812  0.01645  1.0000
  O   O3        1.0  0.05958  0.99874  0.94265  1.0000
  C   C6        1.0  0.13226  0.01010  0.99025  1.0000
  C   C7        1.0  0.14559  0.05168  0.96408  1.0000
  C   C8        1.0  0.15026  0.01254  0.03769  1.0000
  C   C9        1.0  0.91710  0.98326  0.99231  1.0000
  C   C10       1.0  0.93432  0.01977  0.96862  1.0000
  C   C11       1.0  0.91360  0.03487  0.92975  1.0000
  C   C12       1.0  0.87528  0.01390  0.91406  1.0000
  C   C13       1.0  0.85761  0.97778  0.93721  1.0000
  C   C14       1.0  0.87832  0.96260  0.97603  1.0000
  H   H1        1.0  0.90679  0.04700  0.11402  1.0000
  H   H2        1.0  0.90544  0.05456  0.05573  1.0000
  H   H3        1.0  0.95708  0.04614  0.08346  1.0000
  H   H4        1.0  0.93115  0.96991  0.10663  1.0000
  H   H5        1.0  0.88091  0.97821  0.07756  1.0000
  H   H6        1.0  0.93184  0.92988  0.03630  1.0000
  H   H7        1.0  0.99809  0.00277  0.03971  1.0000
  H   H8        1.0  0.08181  0.92637  0.99832  1.0000
  H   H9        1.0  0.07435  0.95416  0.05063  1.0000
  H   H10       1.0  0.14603  0.98073  0.97344  1.0000
  H   H11       1.0  0.18188  0.05556  0.96344  1.0000
  H   H12       1.0  0.13119  0.08183  0.97881  1.0000
  H   H13       1.0  0.13403  0.04971  0.92951  1.0000
  H   H14       1.0  0.18642  0.01757  0.03753  1.0000
  H   H15       1.0  0.14373  0.98172  0.05602  1.0000
  H   H16       1.0  0.13516  0.04002  0.05638  1.0000
  H   H17       1.0  0.96412  0.03702  0.97991  1.0000
  H   H18       1.0  0.92761  0.06296  0.91165  1.0000
  H   H19       1.0  0.85932  0.02562  0.88374  1.0000
  H   H20       1.0  0.82780  0.96124  0.92496  1.0000
  H   H21       1.0  0.86409  0.93417  0.99349  1.0000
