data_image0
_chemical_formula_structural       C4OCOCOC6ClH17
_chemical_formula_sum              "C12 O3 Cl1 H17"
_cell_length_a       30
_cell_length_b       30
_cell_length_c       30
_cell_angle_alpha    90
_cell_angle_beta     90
_cell_angle_gamma    90

_space_group_name_H-M_alt    "P 1"
_space_group_IT_number       1

loop_
  _space_group_symop_operation_xyz
  'x, y, z'

loop_
  _atom_site_type_symbol
  _atom_site_label
  _atom_site_symmetry_multiplicity
  _atom_site_fract_x
  _atom_site_fract_y
  _atom_site_fract_z
  _atom_site_occupancy
  C   C1        1.0  0.89959  0.04505  0.96503  1.0000
  C   C2        1.0  0.91801  0.02238  0.00663  1.0000
  C   C3        1.0  0.96342  0.99656  0.00237  1.0000
  C   C4        1.0  0.96851  0.96849  0.04561  1.0000
  O   O1        1.0  0.97048  0.99589  0.08443  1.0000
  C   C5        1.0  0.96186  0.96390  0.96267  1.0000
  O   O2        1.0  0.92425  0.93494  0.96598  1.0000
  C   C6        1.0  0.00314  0.03042  0.99747  1.0000
  O   O3        1.0  0.99857  0.05616  0.95766  1.0000
  C   C7        1.0  0.05055  0.01217  0.00201  1.0000
  C   C8        1.0  0.06991  0.01319  0.04493  1.0000
  C   C9        1.0  0.11284  0.99706  0.05294  1.0000
  C   C10       1.0  0.13781  0.97964  0.01810  1.0000
  C   C11       1.0  0.11981  0.97860  0.97533  1.0000
  C   C12       1.0  0.07669  0.99476  0.96716  1.0000
  Cl  Cl1       1.0  0.05920  0.99288  0.91230  1.0000
  H   H1        1.0  0.89515  0.02165  0.93747  1.0000
  H   H2        1.0  0.86675  0.05920  0.97251  1.0000
  H   H3        1.0  0.92058  0.07260  0.95389  1.0000
  H   H4        1.0  0.89224  0.99914  0.01832  1.0000
  H   H5        1.0  0.92094  0.04781  0.03277  1.0000
  H   H6        1.0  0.99883  0.94820  0.04477  1.0000
  H   H7        1.0  0.94072  0.94516  0.04996  1.0000
  H   H8        1.0  0.93984  0.00265  0.09276  1.0000
  H   H9        1.0  0.99146  0.94260  0.96210  1.0000
  H   H10       1.0  0.95973  0.98146  0.93077  1.0000
  H   H11       1.0  0.92335  0.91771  0.93849  1.0000
  H   H12       1.0  0.99931  0.05530  0.02406  1.0000
  H   H13       1.0  0.02781  0.06766  0.94965  1.0000
  H   H14       1.0  0.05112  0.02645  0.07309  1.0000
  H   H15       1.0  0.12655  0.99809  0.08648  1.0000
  H   H16       1.0  0.17123  0.96703  0.02413  1.0000
  H   H17       1.0  0.13975  0.96521  0.94817  1.0000
