data_image0
_chemical_formula_structural       C3OC7OC2NSO2C4FC3H22
_chemical_formula_sum              "C19 O4 N1 S1 F1 H22"
_cell_length_a       30
_cell_length_b       30
_cell_length_c       30
_cell_angle_alpha    90
_cell_angle_beta     90
_cell_angle_gamma    90

_space_group_name_H-M_alt    "P 1"
_space_group_IT_number       1

loop_
  _space_group_symop_operation_xyz
  'x, y, z'

loop_
  _atom_site_type_symbol
  _atom_site_label
  _atom_site_symmetry_multiplicity
  _atom_site_fract_x
  _atom_site_fract_y
  _atom_site_fract_z
  _atom_site_occupancy
  C   C1        1.0  0.95092  0.12187  0.02310  1.0000
  C   C2        1.0  0.91062  0.10791  0.99566  1.0000
  C   C3        1.0  0.92253  0.08051  0.95421  1.0000
  O   O1        1.0  0.88325  0.07204  0.92899  1.0000
  C   C4        1.0  0.94576  0.03736  0.96503  1.0000
  C   C5        1.0  0.92819  0.99677  0.97332  1.0000
  C   C6        1.0  0.87913  0.98647  0.97476  1.0000
  C   C7        1.0  0.95852  0.95880  0.98204  1.0000
  C   C8        1.0  0.95361  0.91863  0.95864  1.0000
  C   C9        1.0  0.98187  0.88241  0.96687  1.0000
  C   C10       1.0  0.01567  0.88614  0.99853  1.0000
  O   O2        1.0  0.04438  0.85219  0.00931  1.0000
  C   C11       1.0  0.05924  0.82676  0.97200  1.0000
  C   C12       1.0  0.02021  0.92588  0.02268  1.0000
  N   N1        1.0  0.05604  0.93057  0.05390  1.0000
  S   S1        1.0  0.10431  0.95188  0.03341  1.0000
  O   O3        1.0  0.11033  0.93801  0.98760  1.0000
  O   O4        1.0  0.13825  0.94334  0.06665  1.0000
  C   C13       1.0  0.09389  0.01024  0.03421  1.0000
  C   C14       1.0  0.09148  0.03238  0.07523  1.0000
  C   C15       1.0  0.08332  0.07816  0.07597  1.0000
  C   C16       1.0  0.07802  0.10114  0.03600  1.0000
  F   F1        1.0  0.06994  0.14504  0.03684  1.0000
  C   C17       1.0  0.08080  0.07931  0.99514  1.0000
  C   C18       1.0  0.08889  0.03352  0.99407  1.0000
  C   C19       1.0  0.99210  0.96199  0.01437  1.0000
  H   H1        1.0  0.96792  0.09300  0.03751  1.0000
  H   H2        1.0  0.94050  0.14343  0.05062  1.0000
  H   H3        1.0  0.97482  0.14039  0.00268  1.0000
  H   H4        1.0  0.88731  0.08927  0.01681  1.0000
  H   H5        1.0  0.89242  0.13789  0.98525  1.0000
  H   H6        1.0  0.94461  0.10001  0.93256  1.0000
  H   H7        1.0  0.87073  0.10075  0.92081  1.0000
  H   H8        1.0  0.98192  0.04079  0.96510  1.0000
  H   H9        1.0  0.85922  0.01547  0.98434  1.0000
  H   H10       1.0  0.87189  0.96074  0.99967  1.0000
  H   H11       1.0  0.86752  0.97456  0.94227  1.0000
  H   H12       1.0  0.92773  0.91524  0.93344  1.0000
  H   H13       1.0  0.97660  0.85172  0.94846  1.0000
  H   H14       1.0  0.03391  0.80240  0.96217  1.0000
  H   H15       1.0  0.06847  0.84807  0.94380  1.0000
  H   H16       1.0  0.08899  0.80833  0.98228  1.0000
  H   H17       1.0  0.06351  0.90150  0.07008  1.0000
  H   H18       1.0  0.09586  0.01420  0.10631  1.0000
  H   H19       1.0  0.08117  0.09606  0.10735  1.0000
  H   H20       1.0  0.07674  0.09809  0.96448  1.0000
  H   H21       1.0  0.09112  0.01634  0.96220  1.0000
  H   H22       1.0  0.99579  0.99241  0.03368  1.0000
