data_image0
_chemical_formula_structural       C4NC7NC2O2C4H36
_chemical_formula_sum              "C17 N2 O2 H36"
_cell_length_a       30
_cell_length_b       30
_cell_length_c       30
_cell_angle_alpha    90
_cell_angle_beta     90
_cell_angle_gamma    90

_space_group_name_H-M_alt    "P 1"
_space_group_IT_number       1

loop_
  _space_group_symop_operation_xyz
  'x, y, z'

loop_
  _atom_site_type_symbol
  _atom_site_label
  _atom_site_symmetry_multiplicity
  _atom_site_fract_x
  _atom_site_fract_y
  _atom_site_fract_z
  _atom_site_occupancy
  C   C1        1.0  0.79459  0.92479  0.03738  1.0000
  C   C2        1.0  0.82257  0.96621  0.02834  1.0000
  C   C3        1.0  0.86277  0.95752  0.99720  1.0000
  C   C4        1.0  0.84848  0.93940  0.95146  1.0000
  N   N1        1.0  0.89140  0.99786  0.99522  1.0000
  C   C5        1.0  0.87173  0.03538  0.97055  1.0000
  C   C6        1.0  0.87113  0.07713  0.99956  1.0000
  C   C7        1.0  0.93704  0.98685  0.98071  1.0000
  C   C8        1.0  0.97084  0.02464  0.98816  1.0000
  C   C9        1.0  0.01845  0.00870  0.97839  1.0000
  C   C10       1.0  0.05378  0.04541  0.98496  1.0000
  C   C11       1.0  0.04988  0.08188  0.94959  1.0000
  N   N2        1.0  0.09879  0.02638  0.98083  1.0000
  C   C12       1.0  0.11756  0.01026  0.02378  1.0000
  C   C13       1.0  0.12955  0.05072  0.05331  1.0000
  O   O1        1.0  0.14707  0.08568  0.04209  1.0000
  O   O2        1.0  0.11827  0.04431  0.09652  1.0000
  C   C14       1.0  0.15866  0.97855  0.01722  1.0000
  C   C15       1.0  0.17850  0.96504  0.06276  1.0000
  C   C16       1.0  0.14397  0.93512  0.99358  1.0000
  C   C17       1.0  0.19580  0.00043  0.98923  1.0000
  H   H1        1.0  0.77667  0.91416  0.00747  1.0000
  H   H2        1.0  0.81535  0.89715  0.04896  1.0000
  H   H3        1.0  0.76970  0.93183  0.06315  1.0000
  H   H4        1.0  0.83492  0.97871  0.06045  1.0000
  H   H5        1.0  0.80065  0.99209  0.01475  1.0000
  H   H6        1.0  0.88219  0.93111  0.01354  1.0000
  H   H7        1.0  0.83361  0.90622  0.95488  1.0000
  H   H8        1.0  0.87691  0.93571  0.92888  1.0000
  H   H9        1.0  0.82382  0.96081  0.93517  1.0000
  H   H10       1.0  0.88944  0.04198  0.93923  1.0000
  H   H11       1.0  0.83717  0.02896  0.96080  1.0000
  H   H12       1.0  0.85545  0.10465  0.98150  1.0000
  H   H13       1.0  0.90459  0.08771  0.00907  1.0000
  H   H14       1.0  0.85185  0.07158  0.03004  1.0000
  H   H15       1.0  0.93751  0.97712  0.94542  1.0000
  H   H16       1.0  0.94882  0.95794  0.99987  1.0000
  H   H17       1.0  0.96899  0.03627  0.02278  1.0000
  H   H18       1.0  0.96266  0.05285  0.96650  1.0000
  H   H19       1.0  0.02581  0.98058  0.00063  1.0000
  H   H20       1.0  0.02017  0.99571  0.94421  1.0000
  H   H21       1.0  0.04917  0.06120  0.01755  1.0000
  H   H22       1.0  0.01848  0.10013  0.95277  1.0000
  H   H23       1.0  0.05158  0.06815  0.91584  1.0000
  H   H24       1.0  0.07682  0.10635  0.95316  1.0000
  H   H25       1.0  0.09888  0.00188  0.95747  1.0000
  H   H26       1.0  0.09156  0.99128  0.04131  1.0000
  H   H27       1.0  0.12732  0.07232  0.11072  1.0000
  H   H28       1.0  0.20461  0.93983  0.05876  1.0000
  H   H29       1.0  0.15292  0.95102  0.08472  1.0000
  H   H30       1.0  0.19375  0.99350  0.07985  1.0000
  H   H31       1.0  0.11676  0.91887  0.01175  1.0000
  H   H32       1.0  0.17159  0.91128  0.99150  1.0000
  H   H33       1.0  0.13268  0.94108  0.95943  1.0000
  H   H34       1.0  0.20840  0.03091  0.00496  1.0000
  H   H35       1.0  0.18420  0.00905  0.95569  1.0000
  H   H36       1.0  0.22417  0.97775  0.98529  1.0000
