data_image0
_chemical_formula_structural       C3OC3NCOCSCN2C5NOH20
_chemical_formula_sum              "C14 O3 N4 S1 H20"
_cell_length_a       30
_cell_length_b       30
_cell_length_c       30
_cell_angle_alpha    90
_cell_angle_beta     90
_cell_angle_gamma    90

_space_group_name_H-M_alt    "P 1"
_space_group_IT_number       1

loop_
  _space_group_symop_operation_xyz
  'x, y, z'

loop_
  _atom_site_type_symbol
  _atom_site_label
  _atom_site_symmetry_multiplicity
  _atom_site_fract_x
  _atom_site_fract_y
  _atom_site_fract_z
  _atom_site_occupancy
  C   C1        1.0  0.91786  0.04464  0.04364  1.0000
  C   C2        1.0  0.87204  0.03716  0.02300  1.0000
  C   C3        1.0  0.87212  0.01707  0.97550  1.0000
  O   O1        1.0  0.89840  0.04561  0.94692  1.0000
  C   C4        1.0  0.82446  0.01659  0.95575  1.0000
  C   C5        1.0  0.79121  0.98655  0.97956  1.0000
  C   C6        1.0  0.89297  0.96984  0.97375  1.0000
  N   N1        1.0  0.94131  0.97137  0.97327  1.0000
  C   C7        1.0  0.96709  0.93469  0.98297  1.0000
  O   O2        1.0  0.95143  0.89929  0.99633  1.0000
  C   C8        1.0  0.01671  0.94182  0.97663  1.0000
  S   S1        1.0  0.04024  0.96408  0.02770  1.0000
  C   C9        1.0  0.09487  0.97238  0.01079  1.0000
  N   N2        1.0  0.11045  0.96382  0.97068  1.0000
  N   N3        1.0  0.15491  0.97555  0.97109  1.0000
  C   C10       1.0  0.16368  0.99060  0.01147  1.0000
  C   C11       1.0  0.20612  0.00652  0.02570  1.0000
  C   C12       1.0  0.24585  0.00990  0.00270  1.0000
  C   C13       1.0  0.27795  0.02813  0.03214  1.0000
  C   C14       1.0  0.25704  0.03534  0.07236  1.0000
  N   N4        1.0  0.21349  0.02214  0.06812  1.0000
  O   O3        1.0  0.12679  0.98947  0.03854  1.0000
  H   H1        1.0  0.91444  0.06306  0.07498  1.0000
  H   H2        1.0  0.93419  0.01304  0.05151  1.0000
  H   H3        1.0  0.93961  0.06400  0.02168  1.0000
  H   H4        1.0  0.85540  0.06974  0.02192  1.0000
  H   H5        1.0  0.85263  0.01611  0.04568  1.0000
  H   H6        1.0  0.88512  0.07521  0.94781  1.0000
  H   H7        1.0  0.81125  0.05072  0.95520  1.0000
  H   H8        1.0  0.82622  0.00665  0.92057  1.0000
  H   H9        1.0  0.78600  0.99694  0.01412  1.0000
  H   H10       1.0  0.75889  0.98809  0.96267  1.0000
  H   H11       1.0  0.80203  0.95174  0.97941  1.0000
  H   H12       1.0  0.88141  0.94889  0.00135  1.0000
  H   H13       1.0  0.88370  0.95316  0.94257  1.0000
  H   H14       1.0  0.95463  0.99783  0.95692  1.0000
  H   H15       1.0  0.03206  0.90979  0.96824  1.0000
  H   H16       1.0  0.02226  0.96478  0.94880  1.0000
  H   H17       1.0  0.25107  0.00028  0.96827  1.0000
  H   H18       1.0  0.31258  0.03516  0.02477  1.0000
  H   H19       1.0  0.26935  0.04871  0.10352  1.0000
  H   H20       1.0  0.19018  0.02355  0.09248  1.0000
