data_image0
_chemical_formula_structural       C5OC3NC2NC5FC4H29
_chemical_formula_sum              "C19 O1 N2 F1 H29"
_cell_length_a       30
_cell_length_b       30
_cell_length_c       30
_cell_angle_alpha    90
_cell_angle_beta     90
_cell_angle_gamma    90

_space_group_name_H-M_alt    "P 1"
_space_group_IT_number       1

loop_
  _space_group_symop_operation_xyz
  'x, y, z'

loop_
  _atom_site_type_symbol
  _atom_site_label
  _atom_site_symmetry_multiplicity
  _atom_site_fract_x
  _atom_site_fract_y
  _atom_site_fract_z
  _atom_site_occupancy
  C   C1        1.0  0.80865  0.04841  0.98381  1.0000
  C   C2        1.0  0.82291  0.00049  0.99281  1.0000
  C   C3        1.0  0.87129  0.98891  0.98025  1.0000
  C   C4        1.0  0.88514  0.00619  0.93450  1.0000
  C   C5        1.0  0.90474  0.00464  0.01559  1.0000
  O   O1        1.0  0.89715  0.03757  0.03897  1.0000
  C   C6        1.0  0.94793  0.97652  0.01997  1.0000
  C   C7        1.0  0.93922  0.94030  0.05558  1.0000
  C   C8        1.0  0.93567  0.95760  0.10325  1.0000
  N   N1        1.0  0.98769  0.00494  0.02849  1.0000
  C   C9        1.0  0.02910  0.97852  0.03260  1.0000
  C   C10       1.0  0.07125  0.00763  0.03882  1.0000
  N   N2        1.0  0.07782  0.04234  0.00454  1.0000
  C   C11       1.0  0.09137  0.02408  0.96111  1.0000
  C   C12       1.0  0.13789  0.00429  0.96138  1.0000
  C   C13       1.0  0.17450  0.02995  0.97537  1.0000
  C   C14       1.0  0.21739  0.01197  0.97523  1.0000
  C   C15       1.0  0.22377  0.96840  0.96093  1.0000
  F   F1        1.0  0.26493  0.95108  0.96078  1.0000
  C   C16       1.0  0.18809  0.94246  0.94675  1.0000
  C   C17       1.0  0.14514  0.96037  0.94689  1.0000
  C   C18       1.0  0.03605  0.06811  0.00088  1.0000
  C   C19       1.0  0.99358  0.03964  0.99392  1.0000
  H   H1        1.0  0.83016  0.07247  0.00070  1.0000
  H   H2        1.0  0.77457  0.05362  0.99580  1.0000
  H   H3        1.0  0.80885  0.05585  0.94810  1.0000
  H   H4        1.0  0.81739  0.99302  0.02819  1.0000
  H   H5        1.0  0.80050  0.97851  0.97402  1.0000
  H   H6        1.0  0.87314  0.95236  0.97983  1.0000
  H   H7        1.0  0.86084  0.99663  0.90902  1.0000
  H   H8        1.0  0.91749  0.99245  0.92464  1.0000
  H   H9        1.0  0.88855  0.04254  0.93432  1.0000
  H   H10       1.0  0.95297  0.95951  0.98796  1.0000
  H   H11       1.0  0.96550  0.91495  0.05414  1.0000
  H   H12       1.0  0.90812  0.92275  0.04765  1.0000
  H   H13       1.0  0.93027  0.92969  0.12615  1.0000
  H   H14       1.0  0.96606  0.97479  0.11376  1.0000
  H   H15       1.0  0.90758  0.98052  0.10709  1.0000
  H   H16       1.0  0.03338  0.95701  0.00333  1.0000
  H   H17       1.0  0.02714  0.95667  0.06178  1.0000
  H   H18       1.0  0.06897  0.02436  0.07132  1.0000
  H   H19       1.0  0.10061  0.98604  0.04140  1.0000
  H   H20       1.0  0.06743  0.99940  0.94873  1.0000
  H   H21       1.0  0.09197  0.05092  0.93622  1.0000
  H   H22       1.0  0.16938  0.06401  0.98679  1.0000
  H   H23       1.0  0.24569  0.03162  0.98622  1.0000
  H   H24       1.0  0.19398  0.90853  0.93568  1.0000
  H   H25       1.0  0.11744  0.93987  0.93569  1.0000
  H   H26       1.0  0.03878  0.09274  0.97399  1.0000
  H   H27       1.0  0.03206  0.08767  0.03157  1.0000
  H   H28       1.0  0.96533  0.06275  0.99414  1.0000
  H   H29       1.0  0.99457  0.02434  0.96071  1.0000
