data_image0
_chemical_formula_structural       C4FCOC4OC3H17
_chemical_formula_sum              "C12 F1 O2 H17"
_cell_length_a       30
_cell_length_b       30
_cell_length_c       30
_cell_angle_alpha    90
_cell_angle_beta     90
_cell_angle_gamma    90

_space_group_name_H-M_alt    "P 1"
_space_group_IT_number       1

loop_
  _space_group_symop_operation_xyz
  'x, y, z'

loop_
  _atom_site_type_symbol
  _atom_site_label
  _atom_site_symmetry_multiplicity
  _atom_site_fract_x
  _atom_site_fract_y
  _atom_site_fract_z
  _atom_site_occupancy
  C   C1        1.0  0.90893  0.98769  0.08624  1.0000
  C   C2        1.0  0.93516  0.00390  0.04588  1.0000
  C   C3        1.0  0.92989  0.97439  0.00417  1.0000
  C   C4        1.0  0.88098  0.96947  0.99025  1.0000
  F   F1        1.0  0.94452  0.93234  0.01454  1.0000
  C   C5        1.0  0.95811  0.99226  0.96431  1.0000
  O   O1        1.0  0.95374  0.96355  0.92638  1.0000
  C   C6        1.0  0.00763  0.99871  0.97235  1.0000
  C   C7        1.0  0.02820  0.03860  0.95912  1.0000
  C   C8        1.0  0.07390  0.04554  0.96567  1.0000
  C   C9        1.0  0.09995  0.01252  0.98536  1.0000
  O   O2        1.0  0.14469  0.01496  0.99370  1.0000
  C   C10       1.0  0.16678  0.05477  0.98051  1.0000
  C   C11       1.0  0.07989  0.97256  0.99818  1.0000
  C   C12       1.0  0.03429  0.96554  0.99160  1.0000
  H   H1        1.0  0.91755  0.00768  0.11554  1.0000
  H   H2        1.0  0.87298  0.99095  0.08106  1.0000
  H   H3        1.0  0.91654  0.95282  0.09376  1.0000
  H   H4        1.0  0.97029  0.00479  0.05584  1.0000
  H   H5        1.0  0.92526  0.03825  0.03824  1.0000
  H   H6        1.0  0.86150  0.95271  0.01615  1.0000
  H   H7        1.0  0.86577  0.00187  0.98320  1.0000
  H   H8        1.0  0.87781  0.94852  0.96053  1.0000
  H   H9        1.0  0.94372  0.02438  0.95433  1.0000
  H   H10       1.0  0.96467  0.93447  0.93587  1.0000
  H   H11       1.0  0.00876  0.06478  0.94321  1.0000
  H   H12       1.0  0.08800  0.07702  0.95484  1.0000
  H   H13       1.0  0.16469  0.05965  0.94440  1.0000
  H   H14       1.0  0.20204  0.05136  0.98922  1.0000
  H   H15       1.0  0.15366  0.08368  0.99852  1.0000
  H   H16       1.0  0.10000  0.94650  0.01336  1.0000
  H   H17       1.0  0.02011  0.93378  0.00181  1.0000
