data_image0
_chemical_formula_structural       C5OC8OC2NH27
_chemical_formula_sum              "C15 O2 N1 H27"
_cell_length_a       30
_cell_length_b       30
_cell_length_c       30
_cell_angle_alpha    90
_cell_angle_beta     90
_cell_angle_gamma    90

_space_group_name_H-M_alt    "P 1"
_space_group_IT_number       1

loop_
  _space_group_symop_operation_xyz
  'x, y, z'

loop_
  _atom_site_type_symbol
  _atom_site_label
  _atom_site_symmetry_multiplicity
  _atom_site_fract_x
  _atom_site_fract_y
  _atom_site_fract_z
  _atom_site_occupancy
  C   C1        1.0  0.87333  0.05990  0.98655  1.0000
  C   C2        1.0  0.91117  0.02633  0.98125  1.0000
  C   C3        1.0  0.91695  0.99257  0.02002  1.0000
  C   C4        1.0  0.87348  0.96522  0.02568  1.0000
  C   C5        1.0  0.92595  0.01603  0.06520  1.0000
  O   O1        1.0  0.95995  0.04891  0.06249  1.0000
  C   C6        1.0  0.95426  0.95781  0.00891  1.0000
  C   C7        1.0  0.00124  0.97644  0.00146  1.0000
  C   C8        1.0  0.03770  0.93988  0.99862  1.0000
  C   C9        1.0  0.06302  0.96810  0.96322  1.0000
  C   C10       1.0  0.07877  0.93830  0.92446  1.0000
  C   C11       1.0  0.10341  0.99597  0.97938  1.0000
  C   C12       1.0  0.09543  0.02491  0.02068  1.0000
  C   C13       1.0  0.13706  0.05088  0.03409  1.0000
  O   O2        1.0  0.14860  0.08142  0.99980  1.0000
  C   C14       1.0  0.01826  0.99471  0.95547  1.0000
  C   C15       1.0  0.99243  0.98252  0.91633  1.0000
  N   N1        1.0  0.97171  0.97293  0.88510  1.0000
  H   H1        1.0  0.87686  0.07977  0.01690  1.0000
  H   H2        1.0  0.87333  0.08297  0.95825  1.0000
  H   H3        1.0  0.84078  0.04351  0.98712  1.0000
  H   H4        1.0  0.90524  0.00800  0.95018  1.0000
  H   H5        1.0  0.94202  0.04526  0.97648  1.0000
  H   H6        1.0  0.84553  0.98607  0.03644  1.0000
  H   H7        1.0  0.86392  0.94903  0.99435  1.0000
  H   H8        1.0  0.87757  0.93908  0.05089  1.0000
  H   H9        1.0  0.93622  0.99163  0.09037  1.0000
  H   H10       1.0  0.89588  0.03231  0.07806  1.0000
  H   H11       1.0  0.94708  0.07524  0.04864  1.0000
  H   H12       1.0  0.94414  0.93784  0.97997  1.0000
  H   H13       1.0  0.95604  0.93414  0.03683  1.0000
  H   H14       1.0  0.00960  0.99921  0.02870  1.0000
  H   H15       1.0  0.05561  0.93325  0.02970  1.0000
  H   H16       1.0  0.02520  0.90780  0.98621  1.0000
  H   H17       1.0  0.05255  0.91581  0.91267  1.0000
  H   H18       1.0  0.08975  0.95860  0.89616  1.0000
  H   H19       1.0  0.10684  0.91736  0.93485  1.0000
  H   H20       1.0  0.11441  0.01732  0.95178  1.0000
  H   H21       1.0  0.13121  0.97330  0.98668  1.0000
  H   H22       1.0  0.06863  0.04877  0.01401  1.0000
  H   H23       1.0  0.08523  0.00413  0.04889  1.0000
  H   H24       1.0  0.13066  0.06978  0.06463  1.0000
  H   H25       1.0  0.16523  0.02842  0.03987  1.0000
  H   H26       1.0  0.17482  0.09759  0.00992  1.0000
  H   H27       1.0  0.02293  0.03099  0.95618  1.0000
