data_image0
_chemical_formula_structural       C4NC2OC3ONC4NC8OH27
_chemical_formula_sum              "C21 N3 O3 H27"
_cell_length_a       30
_cell_length_b       30
_cell_length_c       30
_cell_angle_alpha    90
_cell_angle_beta     90
_cell_angle_gamma    90

_space_group_name_H-M_alt    "P 1"
_space_group_IT_number       1

loop_
  _space_group_symop_operation_xyz
  'x, y, z'

loop_
  _atom_site_type_symbol
  _atom_site_label
  _atom_site_symmetry_multiplicity
  _atom_site_fract_x
  _atom_site_fract_y
  _atom_site_fract_z
  _atom_site_occupancy
  C   C1        1.0  0.92779  0.09175  0.93061  1.0000
  C   C2        1.0  0.94620  0.05027  0.95324  1.0000
  C   C3        1.0  0.93040  0.04472  0.00187  1.0000
  C   C4        1.0  0.87915  0.04165  0.00766  1.0000
  N   N1        1.0  0.85415  0.01710  0.97326  1.0000
  C   C5        1.0  0.80590  0.02751  0.97423  1.0000
  C   C6        1.0  0.77695  0.99028  0.99416  1.0000
  O   O1        1.0  0.78098  0.94896  0.97055  1.0000
  C   C7        1.0  0.82420  0.94287  0.95107  1.0000
  C   C8        1.0  0.86106  0.96835  0.97596  1.0000
  C   C9        1.0  0.95558  0.00703  0.02559  1.0000
  O   O2        1.0  0.93710  0.97363  0.04020  1.0000
  N   N2        1.0  0.00072  0.01560  0.02947  1.0000
  C   C10       1.0  0.03378  0.98890  0.04712  1.0000
  C   C11       1.0  0.02943  0.94664  0.06099  1.0000
  C   C12       1.0  0.06691  0.92216  0.07848  1.0000
  C   C13       1.0  0.10703  0.94133  0.08133  1.0000
  N   N3        1.0  0.11367  0.98495  0.06785  1.0000
  C   C14       1.0  0.15807  0.00463  0.07154  1.0000
  C   C15       1.0  0.18765  0.99348  0.03226  1.0000
  C   C16       1.0  0.22015  0.96001  0.03550  1.0000
  C   C17       1.0  0.24730  0.94987  0.99905  1.0000
  C   C18       1.0  0.24217  0.97293  0.95906  1.0000
  C   C19       1.0  0.20989  0.00611  0.95538  1.0000
  C   C20       1.0  0.18274  0.01631  0.99176  1.0000
  C   C21       1.0  0.07924  0.01070  0.05028  1.0000
  O   O3        1.0  0.08314  0.04962  0.03764  1.0000
  H   H1        1.0  0.93674  0.12185  0.94913  1.0000
  H   H2        1.0  0.89151  0.09060  0.92743  1.0000
  H   H3        1.0  0.94168  0.09479  0.89699  1.0000
  H   H4        1.0  0.98268  0.05239  0.95202  1.0000
  H   H5        1.0  0.93755  0.02079  0.93352  1.0000
  H   H6        1.0  0.94038  0.07509  0.01994  1.0000
  H   H7        1.0  0.87054  0.02961  0.04108  1.0000
  H   H8        1.0  0.86768  0.07639  0.00661  1.0000
  H   H9        1.0  0.79910  0.05916  0.99124  1.0000
  H   H10       1.0  0.79568  0.03234  0.93947  1.0000
  H   H11       1.0  0.78563  0.98433  0.02912  1.0000
  H   H12       1.0  0.74176  0.99987  0.99317  1.0000
  H   H13       1.0  0.83140  0.90713  0.95113  1.0000
  H   H14       1.0  0.82248  0.95342  0.91612  1.0000
  H   H15       1.0  0.86059  0.95724  0.01077  1.0000
  H   H16       1.0  0.89336  0.95963  0.96133  1.0000
  H   H17       1.0  0.01208  0.04627  0.02024  1.0000
  H   H18       1.0  0.99792  0.92901  0.05943  1.0000
  H   H19       1.0  0.06162  0.88804  0.08913  1.0000
  H   H20       1.0  0.13561  0.92333  0.09431  1.0000
  H   H21       1.0  0.17344  0.99324  0.10272  1.0000
  H   H22       1.0  0.15542  0.04102  0.07454  1.0000
  H   H23       1.0  0.22463  0.94168  0.06645  1.0000
  H   H24       1.0  0.27248  0.92397  0.00188  1.0000
  H   H25       1.0  0.26329  0.96502  0.93070  1.0000
  H   H26       1.0  0.20578  0.02409  0.92420  1.0000
  H   H27       1.0  0.15766  0.04231  0.98839  1.0000
