data_image0
_chemical_formula_structural       C10NC7OC8H33
_chemical_formula_sum              "C25 N1 O1 H33"
_cell_length_a       30
_cell_length_b       30
_cell_length_c       30
_cell_angle_alpha    90
_cell_angle_beta     90
_cell_angle_gamma    90

_space_group_name_H-M_alt    "P 1"
_space_group_IT_number       1

loop_
  _space_group_symop_operation_xyz
  'x, y, z'

loop_
  _atom_site_type_symbol
  _atom_site_label
  _atom_site_symmetry_multiplicity
  _atom_site_fract_x
  _atom_site_fract_y
  _atom_site_fract_z
  _atom_site_occupancy
  C   C1        1.0  0.04191  0.98189  0.10034  1.0000
  C   C2        1.0  0.01016  0.96439  0.06490  1.0000
  C   C3        1.0  0.01674  0.98298  0.01711  1.0000
  C   C4        1.0  0.06246  0.97158  0.99605  1.0000
  C   C5        1.0  0.07097  0.92215  0.99091  1.0000
  C   C6        1.0  0.10242  0.90052  0.01784  1.0000
  C   C7        1.0  0.10997  0.85484  0.01324  1.0000
  C   C8        1.0  0.08626  0.83037  0.98168  1.0000
  C   C9        1.0  0.05501  0.85155  0.95462  1.0000
  C   C10       1.0  0.04741  0.89721  0.95916  1.0000
  N   N1        1.0  0.00476  0.03128  0.01446  1.0000
  C   C11       1.0  0.03883  0.06514  0.02436  1.0000
  C   C12       1.0  0.05957  0.08602  0.98218  1.0000
  C   C13       1.0  0.02843  0.11669  0.95596  1.0000
  C   C14       1.0  0.02961  0.16100  0.98082  1.0000
  C   C15       1.0  0.07449  0.16226  0.00489  1.0000
  C   C16       1.0  0.09742  0.11810  0.99427  1.0000
  C   C17       1.0  0.96025  0.04600  0.01449  1.0000
  O   O1        1.0  0.94863  0.08375  0.02536  1.0000
  C   C18       1.0  0.92477  0.01523  0.99962  1.0000
  C   C19       1.0  0.89032  0.00443  0.02904  1.0000
  C   C20       1.0  0.85615  0.97583  0.01530  1.0000
  C   C21       1.0  0.81990  0.96265  0.04712  1.0000
  C   C22       1.0  0.85716  0.95829  0.97194  1.0000
  C   C23       1.0  0.89087  0.97022  0.94180  1.0000
  C   C24       1.0  0.89154  0.95100  0.89564  1.0000
  C   C25       1.0  0.92481  0.99890  0.95593  1.0000
  H   H1        1.0  0.03635  0.96409  0.13173  1.0000
  H   H2        1.0  0.07680  0.97711  0.09102  1.0000
  H   H3        1.0  0.03621  0.01728  0.10694  1.0000
  H   H4        1.0  0.01301  0.92796  0.06402  1.0000
  H   H5        1.0  0.97604  0.97132  0.07603  1.0000
  H   H6        1.0  0.99206  0.96513  0.99710  1.0000
  H   H7        1.0  0.08987  0.98681  0.01477  1.0000
  H   H8        1.0  0.06421  0.98617  0.96255  1.0000
  H   H9        1.0  0.12127  0.91904  0.04266  1.0000
  H   H10       1.0  0.13440  0.83834  0.03430  1.0000
  H   H11       1.0  0.09218  0.79481  0.97813  1.0000
  H   H12       1.0  0.03658  0.83248  0.92995  1.0000
  H   H13       1.0  0.02296  0.91322  0.93769  1.0000
  H   H14       1.0  0.02434  0.09105  0.04564  1.0000
  H   H15       1.0  0.06522  0.04981  0.04429  1.0000
  H   H16       1.0  0.07215  0.05962  0.96041  1.0000
  H   H17       1.0  0.04196  0.12162  0.92231  1.0000
  H   H18       1.0  0.99462  0.10384  0.95191  1.0000
  H   H19       1.0  0.00242  0.16279  0.00515  1.0000
  H   H20       1.0  0.02566  0.18917  0.95798  1.0000
  H   H21       1.0  0.09483  0.19059  0.99414  1.0000
  H   H22       1.0  0.06922  0.16565  0.04088  1.0000
  H   H23       1.0  0.11932  0.12257  0.96531  1.0000
  H   H24       1.0  0.11812  0.10634  0.02190  1.0000
  H   H25       1.0  0.89041  0.01838  0.06251  1.0000
  H   H26       1.0  0.82966  0.93262  0.06538  1.0000
  H   H27       1.0  0.78872  0.95606  0.02932  1.0000
  H   H28       1.0  0.81324  0.98938  0.07107  1.0000
  H   H29       1.0  0.83104  0.93540  0.96137  1.0000
  H   H30       1.0  0.85762  0.94500  0.88356  1.0000
  H   H31       1.0  0.90747  0.97399  0.87218  1.0000
  H   H32       1.0  0.90989  0.91947  0.89555  1.0000
  H   H33       1.0  0.95133  0.00863  0.93321  1.0000
