data_image0
_chemical_formula_structural       C3NC5OC7NC3H28
_chemical_formula_sum              "C18 N2 O1 H28"
_cell_length_a       30
_cell_length_b       30
_cell_length_c       30
_cell_angle_alpha    90
_cell_angle_beta     90
_cell_angle_gamma    90

_space_group_name_H-M_alt    "P 1"
_space_group_IT_number       1

loop_
  _space_group_symop_operation_xyz
  'x, y, z'

loop_
  _atom_site_type_symbol
  _atom_site_label
  _atom_site_symmetry_multiplicity
  _atom_site_fract_x
  _atom_site_fract_y
  _atom_site_fract_z
  _atom_site_occupancy
  C   C1        1.0  0.99880  0.92419  0.91525  1.0000
  C   C2        1.0  0.97759  0.93230  0.96068  1.0000
  C   C3        1.0  0.97279  0.98219  0.97337  1.0000
  N   N1        1.0  0.01483  0.00753  0.96936  1.0000
  C   C4        1.0  0.05190  0.99368  0.99783  1.0000
  C   C5        1.0  0.05364  0.02047  0.04176  1.0000
  C   C6        1.0  0.10246  0.02099  0.05667  1.0000
  C   C7        1.0  0.12602  0.02060  0.01275  1.0000
  C   C8        1.0  0.16997  0.03104  0.00332  1.0000
  O   O1        1.0  0.19925  0.04529  0.03489  1.0000
  C   C9        1.0  0.18554  0.02671  0.95986  1.0000
  C   C10       1.0  0.15714  0.01140  0.92610  1.0000
  C   C11       1.0  0.11291  0.00033  0.93560  1.0000
  C   C12       1.0  0.09734  0.00542  0.97897  1.0000
  C   C13       1.0  0.94883  0.98879  0.01910  1.0000
  C   C14       1.0  0.94098  0.03849  0.03052  1.0000
  C   C15       1.0  0.89306  0.05295  0.02117  1.0000
  N   N2        1.0  0.86096  0.02867  0.04905  1.0000
  C   C16       1.0  0.81590  0.03306  0.03115  1.0000
  C   C17       1.0  0.87323  0.98201  0.05699  1.0000
  C   C18       1.0  0.90430  0.96294  0.02144  1.0000
  H   H1        1.0  0.99636  0.88884  0.90650  1.0000
  H   H2        1.0  0.03415  0.93292  0.91520  1.0000
  H   H3        1.0  0.98194  0.94342  0.88924  1.0000
  H   H4        1.0  0.99631  0.91413  0.98625  1.0000
  H   H5        1.0  0.94448  0.91691  0.95949  1.0000
  H   H6        1.0  0.95058  0.99694  0.94822  1.0000
  H   H7        1.0  0.02476  0.00653  0.93694  1.0000
  H   H8        1.0  0.05220  0.95780  0.00457  1.0000
  H   H9        1.0  0.04294  0.05506  0.03603  1.0000
  H   H10       1.0  0.03215  0.00675  0.06779  1.0000
  H   H11       1.0  0.11086  0.99102  0.07573  1.0000
  H   H12       1.0  0.10976  0.05079  0.07635  1.0000
  H   H13       1.0  0.18369  0.04745  0.06316  1.0000
  H   H14       1.0  0.21996  0.03498  0.95217  1.0000
  H   H15       1.0  0.16981  0.00785  0.89233  1.0000
  H   H16       1.0  0.09162  0.98782  0.90921  1.0000
  H   H17       1.0  0.97037  0.97478  0.04512  1.0000
  H   H18       1.0  0.96372  0.06051  0.01239  1.0000
  H   H19       1.0  0.94822  0.04374  0.06603  1.0000
  H   H20       1.0  0.88609  0.04812  0.98556  1.0000
  H   H21       1.0  0.88984  0.08872  0.02796  1.0000
  H   H22       1.0  0.80697  0.06825  0.02720  1.0000
  H   H23       1.0  0.79147  0.01866  0.05417  1.0000
  H   H24       1.0  0.81234  0.01654  0.99876  1.0000
  H   H25       1.0  0.84368  0.96070  0.06022  1.0000
  H   H26       1.0  0.89010  0.98024  0.08940  1.0000
  H   H27       1.0  0.91096  0.92782  0.02910  1.0000
  H   H28       1.0  0.88724  0.96366  0.98908  1.0000
