data_image0
_chemical_formula_structural       C4NCON2COC2NC4NSH19
_chemical_formula_sum              "C12 N5 O2 S1 H19"
_cell_length_a       30
_cell_length_b       30
_cell_length_c       30
_cell_angle_alpha    90
_cell_angle_beta     90
_cell_angle_gamma    90

_space_group_name_H-M_alt    "P 1"
_space_group_IT_number       1

loop_
  _space_group_symop_operation_xyz
  'x, y, z'

loop_
  _atom_site_type_symbol
  _atom_site_label
  _atom_site_symmetry_multiplicity
  _atom_site_fract_x
  _atom_site_fract_y
  _atom_site_fract_z
  _atom_site_occupancy
  C   C1        1.0  0.78427  0.03753  0.02263  1.0000
  C   C2        1.0  0.79582  0.98812  0.02039  1.0000
  C   C3        1.0  0.83992  0.97930  0.99594  1.0000
  C   C4        1.0  0.84715  0.92918  0.98996  1.0000
  N   N1        1.0  0.87725  0.99893  0.02006  1.0000
  C   C5        1.0  0.91639  0.00954  0.99901  1.0000
  O   O1        1.0  0.92275  0.00646  0.95876  1.0000
  N   N2        1.0  0.94802  0.02637  0.02775  1.0000
  N   N3        1.0  0.99129  0.03197  0.00999  1.0000
  C   C6        1.0  0.02726  0.02200  0.03726  1.0000
  O   O2        1.0  0.02111  0.01499  0.07727  1.0000
  C   C7        1.0  0.07030  0.02061  0.01545  1.0000
  C   C8        1.0  0.08191  0.02337  0.97097  1.0000
  N   N4        1.0  0.12699  0.02100  0.96157  1.0000
  C   C9        1.0  0.14934  0.01668  0.99902  1.0000
  C   C10       1.0  0.20173  0.01315  0.00024  1.0000
  C   C11       1.0  0.22553  0.01616  0.95469  1.0000
  C   C12       1.0  0.25485  0.97838  0.97290  1.0000
  N   N5        1.0  0.21768  0.96594  0.00321  1.0000
  S   S1        1.0  0.11807  0.01497  0.04667  1.0000
  H   H1        1.0  0.78227  0.05209  0.98923  1.0000
  H   H2        1.0  0.80912  0.05620  0.04178  1.0000
  H   H3        1.0  0.75189  0.04209  0.03887  1.0000
  H   H4        1.0  0.79730  0.97474  0.05440  1.0000
  H   H5        1.0  0.76864  0.97067  0.00322  1.0000
  H   H6        1.0  0.83854  0.99461  0.96276  1.0000
  H   H7        1.0  0.81952  0.91421  0.97140  1.0000
  H   H8        1.0  0.87791  0.92253  0.97149  1.0000
  H   H9        1.0  0.84978  0.91223  0.02219  1.0000
  H   H10       1.0  0.87827  0.99475  0.05346  1.0000
  H   H11       1.0  0.94735  0.01767  0.06056  1.0000
  H   H12       1.0  0.99285  0.03104  0.97611  1.0000
  H   H13       1.0  0.05905  0.02719  0.94329  1.0000
  H   H14       1.0  0.21655  0.03515  0.02558  1.0000
  H   H15       1.0  0.24267  0.04753  0.94737  1.0000
  H   H16       1.0  0.20572  0.00631  0.92552  1.0000
  H   H17       1.0  0.28478  0.98973  0.99059  1.0000
  H   H18       1.0  0.26436  0.95251  0.94891  1.0000
  H   H19       1.0  0.19583  0.94412  0.98866  1.0000
