data_image0
_chemical_formula_structural       C3OC4NC11NC3H36
_chemical_formula_sum              "C21 O1 N2 H36"
_cell_length_a       30
_cell_length_b       30
_cell_length_c       30
_cell_angle_alpha    90
_cell_angle_beta     90
_cell_angle_gamma    90

_space_group_name_H-M_alt    "P 1"
_space_group_IT_number       1

loop_
  _space_group_symop_operation_xyz
  'x, y, z'

loop_
  _atom_site_type_symbol
  _atom_site_label
  _atom_site_symmetry_multiplicity
  _atom_site_fract_x
  _atom_site_fract_y
  _atom_site_fract_z
  _atom_site_occupancy
  C   C1        1.0  0.13003  0.93553  0.10799  1.0000
  C   C2        1.0  0.10746  0.93150  0.06260  1.0000
  C   C3        1.0  0.07143  0.96748  0.05568  1.0000
  O   O1        1.0  0.03823  0.96226  0.08969  1.0000
  C   C4        1.0  0.04890  0.96919  0.00826  1.0000
  C   C5        1.0  0.02844  0.92363  0.99659  1.0000
  C   C6        1.0  0.08482  0.97951  0.97317  1.0000
  C   C7        1.0  0.01251  0.00681  0.01046  1.0000
  N   N1        1.0  0.99187  0.02143  0.96786  1.0000
  C   C8        1.0  0.96167  0.99559  0.94359  1.0000
  C   C9        1.0  0.92884  0.96668  0.95370  1.0000
  C   C10       1.0  0.90373  0.94327  0.91693  1.0000
  C   C11       1.0  0.91222  0.95667  0.99898  1.0000
  C   C12       1.0  0.89496  0.99078  0.02578  1.0000
  C   C13       1.0  0.87798  0.98162  0.06811  1.0000
  C   C14       1.0  0.87765  0.93789  0.08401  1.0000
  C   C15       1.0  0.89393  0.90355  0.05740  1.0000
  C   C16       1.0  0.91089  0.91283  0.01505  1.0000
  C   C17       1.0  0.00059  0.06828  0.95116  1.0000
  C   C18       1.0  0.04333  0.06891  0.92162  1.0000
  N   N2        1.0  0.04498  0.10441  0.88793  1.0000
  C   C19       1.0  0.99932  0.10517  0.98793  1.0000
  C   C20       1.0  0.95596  0.10374  0.01499  1.0000
  C   C21       1.0  0.00429  0.15240  0.96882  1.0000
  H   H1        1.0  0.10628  0.93073  0.13522  1.0000
  H   H2        1.0  0.15614  0.91026  0.11133  1.0000
  H   H3        1.0  0.14556  0.96832  0.11190  1.0000
  H   H4        1.0  0.09276  0.89813  0.06060  1.0000
  H   H5        1.0  0.13331  0.93392  0.03702  1.0000
  H   H6        1.0  0.08693  0.00009  0.06190  1.0000
  H   H7        1.0  0.02614  0.93220  0.08750  1.0000
  H   H8        1.0  0.01333  0.92363  0.96345  1.0000
  H   H9        1.0  0.05370  0.89727  0.99601  1.0000
  H   H10       1.0  0.00309  0.91376  0.02079  1.0000
  H   H11       1.0  0.11036  0.95347  0.97175  1.0000
  H   H12       1.0  0.10163  0.01107  0.98029  1.0000
  H   H13       1.0  0.07055  0.98092  0.93970  1.0000
  H   H14       1.0  0.02835  0.03531  0.02652  1.0000
  H   H15       1.0  0.98617  0.99679  0.03349  1.0000
  H   H16       1.0  0.96698  0.00201  0.90824  1.0000
  H   H17       1.0  0.86790  0.94957  0.91974  1.0000
  H   H18       1.0  0.91412  0.95465  0.88381  1.0000
  H   H19       1.0  0.90936  0.90719  0.91811  1.0000
  H   H20       1.0  0.89468  0.02490  0.01359  1.0000
  H   H21       1.0  0.86515  0.00855  0.08862  1.0000
  H   H22       1.0  0.86447  0.93081  0.11689  1.0000
  H   H23       1.0  0.89357  0.86954  0.06961  1.0000
  H   H24       1.0  0.92355  0.88558  0.99481  1.0000
  H   H25       1.0  0.97266  0.07622  0.92870  1.0000
  H   H26       1.0  0.04586  0.03752  0.90322  1.0000
  H   H27       1.0  0.07287  0.07174  0.94291  1.0000
  H   H28       1.0  0.07292  0.10022  0.86897  1.0000
  H   H29       1.0  0.01861  0.10093  0.86673  1.0000
  H   H30       1.0  0.02725  0.10070  0.01104  1.0000
  H   H31       1.0  0.92678  0.10625  0.99326  1.0000
  H   H32       1.0  0.95452  0.13135  0.03886  1.0000
  H   H33       1.0  0.95331  0.07311  0.03438  1.0000
  H   H34       1.0  0.03794  0.15800  0.95580  1.0000
  H   H35       1.0  0.99905  0.17758  0.99478  1.0000
  H   H36       1.0  0.98011  0.15855  0.94216  1.0000
