data_image0
_chemical_formula_structural       C14NC7H35
_chemical_formula_sum              "C21 N1 H35"
_cell_length_a       30
_cell_length_b       30
_cell_length_c       30
_cell_angle_alpha    90
_cell_angle_beta     90
_cell_angle_gamma    90

_space_group_name_H-M_alt    "P 1"
_space_group_IT_number       1

loop_
  _space_group_symop_operation_xyz
  'x, y, z'

loop_
  _atom_site_type_symbol
  _atom_site_label
  _atom_site_symmetry_multiplicity
  _atom_site_fract_x
  _atom_site_fract_y
  _atom_site_fract_z
  _atom_site_occupancy
  C   C1        1.0  0.99197  0.00044  0.93035  1.0000
  C   C2        1.0  0.98255  0.95271  0.94456  1.0000
  C   C3        1.0  0.99340  0.93959  0.99317  1.0000
  C   C4        1.0  0.96712  0.96538  0.02936  1.0000
  C   C5        1.0  0.92060  0.94702  0.04079  1.0000
  C   C6        1.0  0.88285  0.95481  0.00678  1.0000
  C   C7        1.0  0.83913  0.93508  0.02470  1.0000
  C   C8        1.0  0.87537  0.00326  0.99410  1.0000
  C   C9        1.0  0.87030  0.01485  0.94905  1.0000
  C   C10       1.0  0.86307  0.05906  0.93645  1.0000
  C   C11       1.0  0.86049  0.09230  0.96874  1.0000
  C   C12       1.0  0.86497  0.08131  0.01362  1.0000
  C   C13       1.0  0.87220  0.03708  0.02624  1.0000
  C   C14       1.0  0.04428  0.94017  0.00292  1.0000
  N   N1        1.0  0.06200  0.98430  0.01327  1.0000
  C   C15       1.0  0.10901  0.98411  0.02698  1.0000
  C   C16       1.0  0.14121  0.97663  0.98765  1.0000
  C   C17       1.0  0.14243  0.01572  0.95500  1.0000
  C   C18       1.0  0.15275  0.05957  0.97857  1.0000
  C   C19       1.0  0.12155  0.06816  0.01785  1.0000
  C   C20       1.0  0.12101  0.02864  0.05048  1.0000
  C   C21       1.0  0.09057  0.03861  0.09024  1.0000
  H   H1        1.0  0.97664  0.00676  0.89781  1.0000
  H   H2        1.0  0.97854  0.02492  0.95371  1.0000
  H   H3        1.0  0.02768  0.00627  0.92627  1.0000
  H   H4        1.0  0.00108  0.93049  0.92214  1.0000
  H   H5        1.0  0.94750  0.94565  0.93775  1.0000
  H   H6        1.0  0.98371  0.90435  0.99607  1.0000
  H   H7        1.0  0.98606  0.96313  0.06065  1.0000
  H   H8        1.0  0.96543  0.00099  0.02172  1.0000
  H   H9        1.0  0.92358  0.91107  0.04707  1.0000
  H   H10       1.0  0.91081  0.96157  0.07293  1.0000
  H   H11       1.0  0.89094  0.93577  0.97673  1.0000
  H   H12       1.0  0.82849  0.95156  0.05551  1.0000
  H   H13       1.0  0.84299  0.89948  0.03181  1.0000
  H   H14       1.0  0.81216  0.93868  0.00032  1.0000
  H   H15       1.0  0.87205  0.98939  0.92329  1.0000
  H   H16       1.0  0.85941  0.06751  0.90142  1.0000
  H   H17       1.0  0.85487  0.12672  0.95897  1.0000
  H   H18       1.0  0.86279  0.10716  0.03890  1.0000
  H   H19       1.0  0.87531  0.02938  0.06151  1.0000
  H   H20       1.0  0.05005  0.91826  0.03165  1.0000
  H   H21       1.0  0.06189  0.92531  0.97459  1.0000
  H   H22       1.0  0.05704  0.00585  0.98767  1.0000
  H   H23       1.0  0.11405  0.95727  0.05135  1.0000
  H   H24       1.0  0.13306  0.94595  0.96960  1.0000
  H   H25       1.0  0.17490  0.97161  0.00105  1.0000
  H   H26       1.0  0.16781  0.00943  0.92949  1.0000
  H   H27       1.0  0.11052  0.01843  0.93744  1.0000
  H   H28       1.0  0.15043  0.08718  0.95476  1.0000
  H   H29       1.0  0.18728  0.05890  0.99060  1.0000
  H   H30       1.0  0.08785  0.07492  0.00539  1.0000
  H   H31       1.0  0.13244  0.09842  0.03525  1.0000
  H   H32       1.0  0.15492  0.02498  0.06390  1.0000
  H   H33       1.0  0.10265  0.06781  0.10853  1.0000
  H   H34       1.0  0.05630  0.04557  0.07979  1.0000
  H   H35       1.0  0.08995  0.01045  0.11346  1.0000
