data_image0
_chemical_formula_structural       C4NC6NC11H26
_chemical_formula_sum              "C21 N2 H26"
_cell_length_a       30
_cell_length_b       30
_cell_length_c       30
_cell_angle_alpha    90
_cell_angle_beta     90
_cell_angle_gamma    90

_space_group_name_H-M_alt    "P 1"
_space_group_IT_number       1

loop_
  _space_group_symop_operation_xyz
  'x, y, z'

loop_
  _atom_site_type_symbol
  _atom_site_label
  _atom_site_symmetry_multiplicity
  _atom_site_fract_x
  _atom_site_fract_y
  _atom_site_fract_z
  _atom_site_occupancy
  C   C1        1.0  0.04879  0.13485  0.97399  1.0000
  C   C2        1.0  0.01760  0.09557  0.98202  1.0000
  C   C3        1.0  0.03624  0.06110  0.01556  1.0000
  C   C4        1.0  0.04312  0.08132  0.06209  1.0000
  N   N1        1.0  0.00761  0.02082  0.01478  1.0000
  C   C5        1.0  0.03148  0.98015  0.02866  1.0000
  C   C6        1.0  0.06557  0.96477  0.99462  1.0000
  C   C7        1.0  0.05213  0.95415  0.95108  1.0000
  C   C8        1.0  0.08317  0.93971  0.91955  1.0000
  C   C9        1.0  0.12807  0.93558  0.93126  1.0000
  C   C10       1.0  0.16003  0.92080  0.89896  1.0000
  N   N2        1.0  0.18600  0.90885  0.87289  1.0000
  C   C11       1.0  0.14173  0.94591  0.97463  1.0000
  C   C12       1.0  0.11063  0.96037  0.00616  1.0000
  C   C13       1.0  0.96550  0.02577  0.03966  1.0000
  C   C14       1.0  0.92992  0.99286  0.02469  1.0000
  C   C15       1.0  0.91729  0.99294  0.97941  1.0000
  C   C16       1.0  0.88449  0.96407  0.96311  1.0000
  C   C17       1.0  0.87277  0.96393  0.91453  1.0000
  C   C18       1.0  0.86436  0.93415  0.99247  1.0000
  C   C19       1.0  0.87622  0.93376  0.03747  1.0000
  C   C20       1.0  0.90879  0.96295  0.05416  1.0000
  C   C21       1.0  0.92012  0.96108  0.10294  1.0000
  H   H1        1.0  0.08189  0.12346  0.96370  1.0000
  H   H2        1.0  0.05236  0.15544  0.00387  1.0000
  H   H3        1.0  0.03547  0.15614  0.94751  1.0000
  H   H4        1.0  0.98535  0.10862  0.99314  1.0000
  H   H5        1.0  0.01182  0.07908  0.94987  1.0000
  H   H6        1.0  0.06936  0.05213  0.00291  1.0000
  H   H7        1.0  0.05393  0.05615  0.08620  1.0000
  H   H8        1.0  0.01268  0.09695  0.07479  1.0000
  H   H9        1.0  0.06916  0.10688  0.06135  1.0000
  H   H10       1.0  0.00844  0.95201  0.03259  1.0000
  H   H11       1.0  0.04710  0.98465  0.06141  1.0000
  H   H12       1.0  0.01719  0.95740  0.94175  1.0000
  H   H13       1.0  0.07200  0.93180  0.88596  1.0000
  H   H14       1.0  0.17659  0.94279  0.98416  1.0000
  H   H15       1.0  0.12180  0.96830  0.03973  1.0000
  H   H16       1.0  0.95088  0.05885  0.03428  1.0000
  H   H17       1.0  0.97176  0.02349  0.07555  1.0000
  H   H18       1.0  0.93376  0.01595  0.95663  1.0000
  H   H19       1.0  0.87585  0.99741  0.90032  1.0000
  H   H20       1.0  0.83826  0.95316  0.90946  1.0000
  H   H21       1.0  0.89494  0.94131  0.89643  1.0000
  H   H22       1.0  0.83921  0.91091  0.98058  1.0000
  H   H23       1.0  0.85971  0.91019  0.05956  1.0000
  H   H24       1.0  0.91310  0.99317  0.11881  1.0000
  H   H25       1.0  0.95531  0.95253  0.10747  1.0000
  H   H26       1.0  0.90043  0.93576  0.12037  1.0000
