data_image0
_chemical_formula_structural       C6OC3O2C3NC6OH25
_chemical_formula_sum              "C18 O4 N1 H25"
_cell_length_a       30
_cell_length_b       30
_cell_length_c       30
_cell_angle_alpha    90
_cell_angle_beta     90
_cell_angle_gamma    90

_space_group_name_H-M_alt    "P 1"
_space_group_IT_number       1

loop_
  _space_group_symop_operation_xyz
  'x, y, z'

loop_
  _atom_site_type_symbol
  _atom_site_label
  _atom_site_symmetry_multiplicity
  _atom_site_fract_x
  _atom_site_fract_y
  _atom_site_fract_z
  _atom_site_occupancy
  C   C1        1.0  0.18441  0.93059  0.96916  1.0000
  C   C2        1.0  0.15560  0.96535  0.99238  1.0000
  C   C3        1.0  0.10965  0.96974  0.97176  1.0000
  C   C4        1.0  0.08052  0.92871  0.97433  1.0000
  C   C5        1.0  0.09645  0.00891  0.95401  1.0000
  C   C6        1.0  0.05165  0.01622  0.93373  1.0000
  O   O1        1.0  0.03734  0.99074  0.90485  1.0000
  C   C7        1.0  0.02574  0.05711  0.94860  1.0000
  C   C8        1.0  0.00315  0.05089  0.99406  1.0000
  C   C9        1.0  0.03810  0.04676  0.03139  1.0000
  O   O2        1.0  0.04044  0.01832  0.06012  1.0000
  O   O3        1.0  0.06839  0.08012  0.03103  1.0000
  C   C10       1.0  0.97303  0.09097  0.00520  1.0000
  C   C11       1.0  0.93268  0.06933  0.02626  1.0000
  C   C12       1.0  0.92892  0.02733  0.99857  1.0000
  N   N1        1.0  0.90008  0.99310  0.01789  1.0000
  C   C13       1.0  0.91193  0.95710  0.04421  1.0000
  C   C14       1.0  0.95843  0.94599  0.05799  1.0000
  C   C15       1.0  0.87336  0.93412  0.05467  1.0000
  C   C16       1.0  0.83713  0.95667  0.03507  1.0000
  C   C17       1.0  0.85394  0.99285  0.01220  1.0000
  C   C18       1.0  0.82891  0.02659  0.98572  1.0000
  O   O4        1.0  0.97408  0.01267  0.99205  1.0000
  H   H1        1.0  0.17001  0.89717  0.97162  1.0000
  H   H2        1.0  0.18894  0.93852  0.93379  1.0000
  H   H3        1.0  0.21749  0.92955  0.98461  1.0000
  H   H4        1.0  0.17332  0.99733  0.99127  1.0000
  H   H5        1.0  0.15219  0.95684  0.02777  1.0000
  H   H6        1.0  0.08327  0.91323  0.00736  1.0000
  H   H7        1.0  0.09104  0.90426  0.94929  1.0000
  H   H8        1.0  0.04518  0.93588  0.96929  1.0000
  H   H9        1.0  0.11781  0.03823  0.95485  1.0000
  H   H10       1.0  0.04797  0.08614  0.94804  1.0000
  H   H11       1.0  0.00049  0.06299  0.92270  1.0000
  H   H12       1.0  0.08742  0.07337  0.05696  1.0000
  H   H13       1.0  0.98829  0.11578  0.02722  1.0000
  H   H14       1.0  0.96271  0.10846  0.97479  1.0000
  H   H15       1.0  0.93946  0.06167  0.06138  1.0000
  H   H16       1.0  0.90295  0.09035  0.02475  1.0000
  H   H17       1.0  0.91599  0.03475  0.96532  1.0000
  H   H18       1.0  0.97932  0.93811  0.02919  1.0000
  H   H19       1.0  0.97323  0.97333  0.07714  1.0000
  H   H20       1.0  0.95860  0.91660  0.07962  1.0000
  H   H21       1.0  0.87179  0.90411  0.07466  1.0000
  H   H22       1.0  0.80234  0.94740  0.03713  1.0000
  H   H23       1.0  0.79387  0.01705  0.98247  1.0000
  H   H24       1.0  0.83011  0.05936  0.00161  1.0000
  H   H25       1.0  0.84227  0.02936  0.95192  1.0000
