data_image0
_chemical_formula_structural       C3NCONC2NFC6ClC4NC2H22
_chemical_formula_sum              "C18 N4 O1 F1 Cl1 H22"
_cell_length_a       30
_cell_length_b       30
_cell_length_c       30
_cell_angle_alpha    90
_cell_angle_beta     90
_cell_angle_gamma    90

_space_group_name_H-M_alt    "P 1"
_space_group_IT_number       1

loop_
  _space_group_symop_operation_xyz
  'x, y, z'

loop_
  _atom_site_type_symbol
  _atom_site_label
  _atom_site_symmetry_multiplicity
  _atom_site_fract_x
  _atom_site_fract_y
  _atom_site_fract_z
  _atom_site_occupancy
  C   C1        1.0  0.86703  0.04850  0.08375  1.0000
  C   C2        1.0  0.87390  0.99867  0.07668  1.0000
  C   C3        1.0  0.89011  0.98491  0.02980  1.0000
  N   N1        1.0  0.93227  0.00550  0.01754  1.0000
  C   C4        1.0  0.97150  0.99156  0.03629  1.0000
  O   O1        1.0  0.97497  0.96064  0.06259  1.0000
  N   N2        1.0  0.00659  0.01709  0.02171  1.0000
  C   C5        1.0  0.05179  0.00534  0.03474  1.0000
  C   C6        1.0  0.07130  0.96736  0.00643  1.0000
  N   N3        1.0  0.07264  0.97705  0.95842  1.0000
  F   F1        1.0  0.08098  0.93872  0.93436  1.0000
  C   C7        1.0  0.10294  0.01315  0.94542  1.0000
  C   C8        1.0  0.15147  0.00612  0.95722  1.0000
  C   C9        1.0  0.17222  0.03275  0.98963  1.0000
  C   C10       1.0  0.21700  0.02622  0.00058  1.0000
  C   C11       1.0  0.24159  0.99306  0.97922  1.0000
  C   C12       1.0  0.22131  0.96656  0.94694  1.0000
  Cl  Cl1       1.0  0.25168  0.92570  0.92052  1.0000
  C   C13       1.0  0.17662  0.97293  0.93587  1.0000
  C   C14       1.0  0.85494  0.99163  0.99397  1.0000
  C   C15       1.0  0.82855  0.95546  0.98067  1.0000
  C   C16       1.0  0.79630  0.96187  0.94818  1.0000
  N   N4        1.0  0.78836  0.00139  0.92828  1.0000
  C   C17       1.0  0.81389  0.03596  0.94144  1.0000
  C   C18       1.0  0.84701  0.03285  0.97359  1.0000
  H   H1        1.0  0.83968  0.06133  0.06338  1.0000
  H   H2        1.0  0.89723  0.06746  0.07611  1.0000
  H   H3        1.0  0.85847  0.05493  0.11865  1.0000
  H   H4        1.0  0.89823  0.98725  0.10148  1.0000
  H   H5        1.0  0.84258  0.98139  0.08432  1.0000
  H   H6        1.0  0.89697  0.94896  0.03149  1.0000
  H   H7        1.0  0.93181  0.03784  0.00860  1.0000
  H   H8        1.0  0.00308  0.02774  0.98994  1.0000
  H   H9        1.0  0.07191  0.03563  0.03208  1.0000
  H   H10       1.0  0.05170  0.99539  0.06990  1.0000
  H   H11       1.0  0.05032  0.93776  0.01088  1.0000
  H   H12       1.0  0.10439  0.95822  0.01889  1.0000
  H   H13       1.0  0.09108  0.04490  0.95910  1.0000
  H   H14       1.0  0.10070  0.01739  0.90915  1.0000
  H   H15       1.0  0.15369  0.05889  0.00663  1.0000
  H   H16       1.0  0.23276  0.04701  0.02575  1.0000
  H   H17       1.0  0.27642  0.98808  0.98783  1.0000
  H   H18       1.0  0.16117  0.95191  0.91066  1.0000
  H   H19       1.0  0.83295  0.92259  0.99518  1.0000
  H   H20       1.0  0.77538  0.93449  0.93705  1.0000
  H   H21       1.0  0.80679  0.06743  0.92499  1.0000
  H   H22       1.0  0.86576  0.06244  0.98239  1.0000
