data_image0
_chemical_formula_structural       C3OCONC7NC7H30
_chemical_formula_sum              "C18 O2 N2 H30"
_cell_length_a       30
_cell_length_b       30
_cell_length_c       30
_cell_angle_alpha    90
_cell_angle_beta     90
_cell_angle_gamma    90

_space_group_name_H-M_alt    "P 1"
_space_group_IT_number       1

loop_
  _space_group_symop_operation_xyz
  'x, y, z'

loop_
  _atom_site_type_symbol
  _atom_site_label
  _atom_site_symmetry_multiplicity
  _atom_site_fract_x
  _atom_site_fract_y
  _atom_site_fract_z
  _atom_site_occupancy
  C   C1        1.0  0.19953  0.03821  0.06211  1.0000
  C   C2        1.0  0.17084  0.05054  0.02241  1.0000
  C   C3        1.0  0.12182  0.04849  0.03329  1.0000
  O   O1        1.0  0.09852  0.08134  0.04021  1.0000
  C   C4        1.0  0.10129  0.00211  0.03486  1.0000
  O   O2        1.0  0.11038  0.97843  0.06688  1.0000
  N   N1        1.0  0.07418  0.98953  0.99928  1.0000
  C   C5        1.0  0.05733  0.02022  0.96573  1.0000
  C   C6        1.0  0.01023  0.03503  0.97814  1.0000
  C   C7        1.0  0.97788  0.99622  0.98972  1.0000
  C   C8        1.0  0.93797  0.01575  0.01688  1.0000
  C   C9        1.0  0.90747  0.04799  0.99145  1.0000
  C   C10       1.0  0.87424  0.06916  0.02234  1.0000
  C   C11       1.0  0.88478  0.11273  0.04495  1.0000
  N   N2        1.0  0.85257  0.11046  0.00848  1.0000
  C   C12       1.0  0.96277  0.97039  0.94774  1.0000
  C   C13       1.0  0.94973  0.92292  0.96328  1.0000
  C   C14       1.0  0.89885  0.91711  0.96513  1.0000
  C   C15       1.0  0.96814  0.88777  0.93086  1.0000
  C   C16       1.0  0.97064  0.91772  0.01018  1.0000
  C   C17       1.0  0.00071  0.95864  0.01735  1.0000
  C   C18       1.0  0.04884  0.94853  0.00289  1.0000
  H   H1        1.0  0.19093  0.05823  0.09140  1.0000
  H   H2        1.0  0.23480  0.04361  0.05446  1.0000
  H   H3        1.0  0.19533  0.00310  0.07107  1.0000
  H   H4        1.0  0.17853  0.08463  0.01177  1.0000
  H   H5        1.0  0.17769  0.02871  0.99395  1.0000
  H   H6        1.0  0.07912  0.04919  0.96207  1.0000
  H   H7        1.0  0.05753  0.00289  0.93359  1.0000
  H   H8        1.0  0.01294  0.05721  0.00713  1.0000
  H   H9        1.0  0.99668  0.05514  0.95081  1.0000
  H   H10       1.0  0.91733  0.98908  0.03085  1.0000
  H   H11       1.0  0.95144  0.03310  0.04622  1.0000
  H   H12       1.0  0.88897  0.02999  0.96563  1.0000
  H   H13       1.0  0.92717  0.07372  0.97465  1.0000
  H   H14       1.0  0.85332  0.04513  0.03938  1.0000
  H   H15       1.0  0.91594  0.12924  0.03732  1.0000
  H   H16       1.0  0.87147  0.11879  0.07794  1.0000
  H   H17       1.0  0.82069  0.11212  0.02038  1.0000
  H   H18       1.0  0.93574  0.98698  0.92974  1.0000
  H   H19       1.0  0.99042  0.96823  0.92391  1.0000
  H   H20       1.0  0.88996  0.88372  0.97699  1.0000
  H   H21       1.0  0.88303  0.94115  0.98745  1.0000
  H   H22       1.0  0.88396  0.92154  0.93209  1.0000
  H   H23       1.0  0.00451  0.88917  0.92847  1.0000
  H   H24       1.0  0.95474  0.89270  0.89723  1.0000
  H   H25       1.0  0.95920  0.85403  0.94161  1.0000
  H   H26       1.0  0.98912  0.88643  0.01392  1.0000
  H   H27       1.0  0.94464  0.91737  0.03588  1.0000
  H   H28       1.0  0.00143  0.96767  0.05281  1.0000
  H   H29       1.0  0.06442  0.92570  0.02678  1.0000
  H   H30       1.0  0.05021  0.93215  0.97031  1.0000
