data_image0
_chemical_formula_structural       C14NC10SC2OCH35
_chemical_formula_sum              "C27 N1 S1 O1 H35"
_cell_length_a       30
_cell_length_b       30
_cell_length_c       30
_cell_angle_alpha    90
_cell_angle_beta     90
_cell_angle_gamma    90

_space_group_name_H-M_alt    "P 1"
_space_group_IT_number       1

loop_
  _space_group_symop_operation_xyz
  'x, y, z'

loop_
  _atom_site_type_symbol
  _atom_site_label
  _atom_site_symmetry_multiplicity
  _atom_site_fract_x
  _atom_site_fract_y
  _atom_site_fract_z
  _atom_site_occupancy
  C   C1        1.0  0.22349  0.98855  0.02542  1.0000
  C   C2        1.0  0.18140  0.96729  0.04425  1.0000
  C   C3        1.0  0.14457  0.00105  0.05088  1.0000
  C   C4        1.0  0.10508  0.00191  0.02974  1.0000
  C   C5        1.0  0.08843  0.97039  0.99739  1.0000
  C   C6        1.0  0.04871  0.97413  0.97892  1.0000
  C   C7        1.0  0.01811  0.95466  0.94922  1.0000
  C   C8        1.0  0.02231  0.95448  0.89971  1.0000
  C   C9        1.0  0.05883  0.98343  0.87947  1.0000
  C   C10       1.0  0.04790  0.03307  0.87855  1.0000
  C   C11       1.0  0.04792  0.05589  0.92400  1.0000
  C   C12       1.0  0.00822  0.04393  0.95363  1.0000
  C   C13       1.0  0.00814  0.99893  0.97670  1.0000
  C   C14       1.0  0.97784  0.99491  0.01747  1.0000
  N   N1        1.0  0.92998  0.00356  0.01241  1.0000
  C   C15       1.0  0.91820  0.05088  0.01115  1.0000
  C   C16       1.0  0.87198  0.05989  0.02957  1.0000
  C   C17       1.0  0.86091  0.04697  0.07315  1.0000
  C   C18       1.0  0.81858  0.05556  0.09037  1.0000
  C   C19       1.0  0.78689  0.07731  0.06431  1.0000
  C   C20       1.0  0.79751  0.09050  0.02104  1.0000
  C   C21       1.0  0.83985  0.08192  0.00374  1.0000
  C   C22       1.0  0.90747  0.97751  0.97783  1.0000
  C   C23       1.0  0.90326  0.92938  0.99149  1.0000
  C   C24       1.0  0.91239  0.89345  0.96404  1.0000
  S   S1        1.0  0.90385  0.84319  0.98951  1.0000
  C   C25       1.0  0.88647  0.86842  0.03747  1.0000
  C   C26       1.0  0.88742  0.91417  0.03408  1.0000
  O   O1        1.0  0.15412  0.03608  0.07977  1.0000
  C   C27       1.0  0.15688  0.02174  0.12501  1.0000
  H   H1        1.0  0.23701  0.01377  0.04808  1.0000
  H   H2        1.0  0.21692  0.00446  0.99322  1.0000
  H   H3        1.0  0.24920  0.96315  0.02040  1.0000
  H   H4        1.0  0.18913  0.95101  0.07601  1.0000
  H   H5        1.0  0.17128  0.94040  0.02180  1.0000
  H   H6        1.0  0.08285  0.02957  0.03756  1.0000
  H   H7        1.0  0.10913  0.94241  0.98766  1.0000
  H   H8        1.0  0.00269  0.92412  0.96087  1.0000
  H   H9        1.0  0.02905  0.91994  0.88965  1.0000
  H   H10       1.0  0.98995  0.96299  0.88496  1.0000
  H   H11       1.0  0.09092  0.97778  0.89598  1.0000
  H   H12       1.0  0.06333  0.97275  0.84476  1.0000
  H   H13       1.0  0.01586  0.03850  0.86181  1.0000
  H   H14       1.0  0.07313  0.04959  0.85783  1.0000
  H   H15       1.0  0.04618  0.09192  0.91775  1.0000
  H   H16       1.0  0.07971  0.05042  0.94105  1.0000
  H   H17       1.0  0.97773  0.04697  0.93374  1.0000
  H   H18       1.0  0.00658  0.06967  0.97958  1.0000
  H   H19       1.0  0.98132  0.96134  0.03172  1.0000
  H   H20       1.0  0.99119  0.01669  0.04373  1.0000
  H   H21       1.0  0.92078  0.06421  0.97724  1.0000
  H   H22       1.0  0.94111  0.07063  0.03175  1.0000
  H   H23       1.0  0.88543  0.02985  0.09367  1.0000
  H   H24       1.0  0.81036  0.04523  0.12410  1.0000
  H   H25       1.0  0.75390  0.08395  0.07770  1.0000
  H   H26       1.0  0.77276  0.10748  0.00076  1.0000
  H   H27       1.0  0.84754  0.09248  0.96993  1.0000
  H   H28       1.0  0.87323  0.98937  0.97273  1.0000
  H   H29       1.0  0.92409  0.98076  0.94547  1.0000
  H   H30       1.0  0.92406  0.89425  0.92995  1.0000
  H   H31       1.0  0.87631  0.84863  0.06582  1.0000
  H   H32       1.0  0.87753  0.93626  0.06091  1.0000
  H   H33       1.0  0.18815  0.00397  0.13109  1.0000
  H   H34       1.0  0.12832  0.00092  0.13420  1.0000
  H   H35       1.0  0.15657  0.05143  0.14618  1.0000
