data_image0
_chemical_formula_structural       C4NC4OC12FH30
_chemical_formula_sum              "C20 N1 O1 F1 H30"
_cell_length_a       30
_cell_length_b       30
_cell_length_c       30
_cell_angle_alpha    90
_cell_angle_beta     90
_cell_angle_gamma    90

_space_group_name_H-M_alt    "P 1"
_space_group_IT_number       1

loop_
  _space_group_symop_operation_xyz
  'x, y, z'

loop_
  _atom_site_type_symbol
  _atom_site_label
  _atom_site_symmetry_multiplicity
  _atom_site_fract_x
  _atom_site_fract_y
  _atom_site_fract_z
  _atom_site_occupancy
  C   C1        1.0  0.04852  0.91756  0.91366  1.0000
  C   C2        1.0  0.02308  0.95606  0.93494  1.0000
  C   C3        1.0  0.03248  0.96112  0.98535  1.0000
  C   C4        1.0  0.00281  0.99796  0.00682  1.0000
  N   N1        1.0  0.95386  0.99274  0.00079  1.0000
  C   C5        1.0  0.93144  0.03592  0.00956  1.0000
  C   C6        1.0  0.88648  0.04162  0.98497  1.0000
  C   C7        1.0  0.88298  0.08673  0.96197  1.0000
  C   C8        1.0  0.86969  0.11762  0.99959  1.0000
  O   O1        1.0  0.84505  0.09127  0.03092  1.0000
  C   C9        1.0  0.84752  0.04543  0.01730  1.0000
  C   C10       1.0  0.93623  0.95374  0.02566  1.0000
  C   C11       1.0  0.93051  0.95993  0.07608  1.0000
  C   C12       1.0  0.89331  0.93533  0.00494  1.0000
  C   C13       1.0  0.08150  0.97089  0.99551  1.0000
  C   C14       1.0  0.10474  0.94277  0.02642  1.0000
  C   C15       1.0  0.14961  0.94998  0.03732  1.0000
  C   C16       1.0  0.16811  0.98498  0.01666  1.0000
  C   C17       1.0  0.14668  0.01170  0.98768  1.0000
  C   C18       1.0  0.10389  0.00703  0.97549  1.0000
  C   C19       1.0  0.19291  0.02142  0.99718  1.0000
  C   C20       1.0  0.20478  0.06088  0.02478  1.0000
  F   F1        1.0  0.22343  0.01015  0.96420  1.0000
  H   H1        1.0  0.03868  0.91391  0.87871  1.0000
  H   H2        1.0  0.08455  0.92311  0.91447  1.0000
  H   H3        1.0  0.04129  0.88613  0.93072  1.0000
  H   H4        1.0  0.03085  0.98694  0.91700  1.0000
  H   H5        1.0  0.98744  0.94982  0.92978  1.0000
  H   H6        1.0  0.02461  0.92904  0.00095  1.0000
  H   H7        1.0  0.01084  0.00130  0.04236  1.0000
  H   H8        1.0  0.01310  0.02954  0.99138  1.0000
  H   H9        1.0  0.92848  0.04236  0.04539  1.0000
  H   H10       1.0  0.95332  0.06253  0.99724  1.0000
  H   H11       1.0  0.88152  0.01483  0.96071  1.0000
  H   H12       1.0  0.91318  0.09750  0.94464  1.0000
  H   H13       1.0  0.85602  0.08555  0.93726  1.0000
  H   H14       1.0  0.84916  0.14549  0.98816  1.0000
  H   H15       1.0  0.89893  0.13105  0.01683  1.0000
  H   H16       1.0  0.85034  0.02436  0.04685  1.0000
  H   H17       1.0  0.81605  0.03733  0.00060  1.0000
  H   H18       1.0  0.95987  0.92624  0.02164  1.0000
  H   H19       1.0  0.96123  0.97179  0.09176  1.0000
  H   H20       1.0  0.92210  0.92802  0.09175  1.0000
  H   H21       1.0  0.90372  0.98325  0.08424  1.0000
  H   H22       1.0  0.89668  0.93177  0.96875  1.0000
  H   H23       1.0  0.88615  0.90212  0.01838  1.0000
  H   H24       1.0  0.86425  0.95605  0.01195  1.0000
  H   H25       1.0  0.08740  0.91487  0.04187  1.0000
  H   H26       1.0  0.16755  0.92887  0.06037  1.0000
  H   H27       1.0  0.08813  0.02936  0.95198  1.0000
  H   H28       1.0  0.23666  0.05520  0.04160  1.0000
  H   H29       1.0  0.20848  0.09031  0.00351  1.0000
  H   H30       1.0  0.17978  0.06852  0.05031  1.0000
