data_image0
_chemical_formula_structural       C5ONC5ONC6SC5H26
_chemical_formula_sum              "C21 O2 N2 S1 H26"
_cell_length_a       30
_cell_length_b       30
_cell_length_c       30
_cell_angle_alpha    90
_cell_angle_beta     90
_cell_angle_gamma    90

_space_group_name_H-M_alt    "P 1"
_space_group_IT_number       1

loop_
  _space_group_symop_operation_xyz
  'x, y, z'

loop_
  _atom_site_type_symbol
  _atom_site_label
  _atom_site_symmetry_multiplicity
  _atom_site_fract_x
  _atom_site_fract_y
  _atom_site_fract_z
  _atom_site_occupancy
  C   C1        1.0  0.21358  0.03490  0.90965  1.0000
  C   C2        1.0  0.22320  0.99335  0.93724  1.0000
  C   C3        1.0  0.19538  0.99140  0.98025  1.0000
  C   C4        1.0  0.21325  0.95470  0.01088  1.0000
  C   C5        1.0  0.14583  0.98267  0.97101  1.0000
  O   O1        1.0  0.13270  0.96863  0.93495  1.0000
  N   N1        1.0  0.11938  0.99195  0.00779  1.0000
  C   C6        1.0  0.07286  0.98654  0.01179  1.0000
  C   C7        1.0  0.04579  0.96829  0.97853  1.0000
  C   C8        1.0  0.99983  0.96392  0.98513  1.0000
  C   C9        1.0  0.98077  0.97845  0.02498  1.0000
  C   C10       1.0  0.93244  0.97350  0.03273  1.0000
  O   O2        1.0  0.92080  0.94560  0.06033  1.0000
  N   N2        1.0  0.90305  0.00077  0.00893  1.0000
  C   C11       1.0  0.91900  0.03907  0.98184  1.0000
  C   C12       1.0  0.88316  0.06723  0.95841  1.0000
  C   C13       1.0  0.84545  0.07345  0.98984  1.0000
  C   C14       1.0  0.83225  0.04012  0.01852  1.0000
  C   C15       1.0  0.79607  0.05460  0.04586  1.0000
  C   C16       1.0  0.78352  0.09783  0.03637  1.0000
  S   S1        1.0  0.81526  0.12082  0.99477  1.0000
  C   C17       1.0  0.85476  0.99507  0.01841  1.0000
  C   C18       1.0  0.83242  0.96382  0.98413  1.0000
  C   C19       1.0  0.84849  0.91577  0.98665  1.0000
  C   C20       1.0  0.00739  0.99598  0.05881  1.0000
  C   C21       1.0  0.05330  0.00011  0.05205  1.0000
  H   H1        1.0  0.17891  0.03591  0.89842  1.0000
  H   H2        1.0  0.23492  0.03548  0.88005  1.0000
  H   H3        1.0  0.22026  0.06516  0.92892  1.0000
  H   H4        1.0  0.25878  0.99348  0.94572  1.0000
  H   H5        1.0  0.21736  0.96366  0.91672  1.0000
  H   H6        1.0  0.19834  0.02352  0.99753  1.0000
  H   H7        1.0  0.19514  0.95372  0.04255  1.0000
  H   H8        1.0  0.24853  0.96013  0.01852  1.0000
  H   H9        1.0  0.20987  0.92182  0.99533  1.0000
  H   H10       1.0  0.13506  0.00473  0.03478  1.0000
  H   H11       1.0  0.05946  0.95662  0.94712  1.0000
  H   H12       1.0  0.97927  0.94898  0.95930  1.0000
  H   H13       1.0  0.94249  0.02684  0.95677  1.0000
  H   H14       1.0  0.93787  0.06055  0.00470  1.0000
  H   H15       1.0  0.87115  0.04963  0.92870  1.0000
  H   H16       1.0  0.89756  0.09891  0.94738  1.0000
  H   H17       1.0  0.77996  0.03439  0.07109  1.0000
  H   H18       1.0  0.75725  0.11709  0.05178  1.0000
  H   H19       1.0  0.85075  0.98054  0.05173  1.0000
  H   H20       1.0  0.79623  0.96391  0.98954  1.0000
  H   H21       1.0  0.83781  0.97615  0.95013  1.0000
  H   H22       1.0  0.88361  0.91293  0.97726  1.0000
  H   H23       1.0  0.82927  0.89497  0.96364  1.0000
  H   H24       1.0  0.84422  0.90223  0.02025  1.0000
  H   H25       1.0  0.99254  0.00615  0.09026  1.0000
  H   H26       1.0  0.07347  0.01395  0.07880  1.0000
