data_image0
_chemical_formula_structural       C3BrCONC3ClCClC2ClH9
_chemical_formula_sum              "C10 Br1 O1 N1 Cl3 H9"
_cell_length_a       30
_cell_length_b       30
_cell_length_c       30
_cell_angle_alpha    90
_cell_angle_beta     90
_cell_angle_gamma    90

_space_group_name_H-M_alt    "P 1"
_space_group_IT_number       1

loop_
  _space_group_symop_operation_xyz
  'x, y, z'

loop_
  _atom_site_type_symbol
  _atom_site_label
  _atom_site_symmetry_multiplicity
  _atom_site_fract_x
  _atom_site_fract_y
  _atom_site_fract_z
  _atom_site_occupancy
  C   C1        1.0  0.11276  0.99532  0.02711  1.0000
  C   C2        1.0  0.10061  0.98329  0.97924  1.0000
  C   C3        1.0  0.07300  0.01830  0.95466  1.0000
  Br  Br1       1.0  0.10833  0.07139  0.94184  1.0000
  C   C4        1.0  0.03011  0.03120  0.97902  1.0000
  O   O1        1.0  0.02559  0.06613  0.99973  1.0000
  N   N1        1.0  0.99782  0.99813  0.97569  1.0000
  C   C5        1.0  0.95443  0.99772  0.99438  1.0000
  C   C6        1.0  0.93711  0.03250  0.02012  1.0000
  C   C7        1.0  0.89385  0.02991  0.03765  1.0000
  Cl  Cl1       1.0  0.87496  0.07433  0.06913  1.0000
  C   C8        1.0  0.86747  0.99233  0.02952  1.0000
  Cl  Cl2       1.0  0.81396  0.98700  0.05010  1.0000
  C   C9        1.0  0.88430  0.95738  0.00390  1.0000
  C   C10       1.0  0.92739  0.96015  0.98655  1.0000
  Cl  Cl3       1.0  0.94679  0.91583  0.95501  1.0000
  H   H1        1.0  0.13284  0.02570  0.02879  1.0000
  H   H2        1.0  0.13229  0.96835  0.04206  1.0000
  H   H3        1.0  0.08299  0.00002  0.04766  1.0000
  H   H4        1.0  0.13139  0.97651  0.96070  1.0000
  H   H5        1.0  0.08196  0.95184  0.98005  1.0000
  H   H6        1.0  0.06412  0.00580  0.92149  1.0000
  H   H7        1.0  0.00552  0.97053  0.95761  1.0000
  H   H8        1.0  0.95650  0.06225  0.02717  1.0000
  H   H9        1.0  0.86393  0.92809  0.99749  1.0000
