data_image0
_chemical_formula_structural       C8NC5SNO2C2H24
_chemical_formula_sum              "C15 N2 S1 O2 H24"
_cell_length_a       30
_cell_length_b       30
_cell_length_c       30
_cell_angle_alpha    90
_cell_angle_beta     90
_cell_angle_gamma    90

_space_group_name_H-M_alt    "P 1"
_space_group_IT_number       1

loop_
  _space_group_symop_operation_xyz
  'x, y, z'

loop_
  _atom_site_type_symbol
  _atom_site_label
  _atom_site_symmetry_multiplicity
  _atom_site_fract_x
  _atom_site_fract_y
  _atom_site_fract_z
  _atom_site_occupancy
  C   C1        1.0  0.89938  0.91842  0.03485  1.0000
  C   C2        1.0  0.92518  0.95583  0.01219  1.0000
  C   C3        1.0  0.91873  0.00210  0.03396  1.0000
  C   C4        1.0  0.86937  0.01614  0.03723  1.0000
  C   C5        1.0  0.84917  0.02770  0.99202  1.0000
  C   C6        1.0  0.87569  0.06430  0.96881  1.0000
  C   C7        1.0  0.92512  0.05265  0.96490  1.0000
  C   C8        1.0  0.94548  0.03996  0.01035  1.0000
  N   N1        1.0  0.99386  0.03227  0.01046  1.0000
  C   C9        1.0  0.01350  0.01489  0.96958  1.0000
  C   C10       1.0  0.06229  0.00424  0.97680  1.0000
  C   C11       1.0  0.07619  0.96017  0.98420  1.0000
  C   C12       1.0  0.12115  0.95048  0.99132  1.0000
  C   C13       1.0  0.15227  0.98511  0.99146  1.0000
  S   S1        1.0  0.20945  0.97339  0.00054  1.0000
  N   N2        1.0  0.21498  0.98617  0.05495  1.0000
  O   O1        1.0  0.21604  0.92575  0.99782  1.0000
  O   O2        1.0  0.23568  0.00469  0.97512  1.0000
  C   C14       1.0  0.13905  0.02914  0.98406  1.0000
  C   C15       1.0  0.09407  0.03860  0.97703  1.0000
  H   H1        1.0  0.90566  0.91799  0.07078  1.0000
  H   H2        1.0  0.90970  0.88617  0.02122  1.0000
  H   H3        1.0  0.86350  0.92154  0.02925  1.0000
  H   H4        1.0  0.96052  0.94676  0.01381  1.0000
  H   H5        1.0  0.91610  0.95662  0.97685  1.0000
  H   H6        1.0  0.93120  0.99945  0.06833  1.0000
  H   H7        1.0  0.86703  0.04555  0.05891  1.0000
  H   H8        1.0  0.84933  0.99038  0.05354  1.0000
  H   H9        1.0  0.84790  0.99797  0.97083  1.0000
  H   H10       1.0  0.81467  0.03881  0.99659  1.0000
  H   H11       1.0  0.87213  0.09552  0.98752  1.0000
  H   H12       1.0  0.86184  0.07032  0.93554  1.0000
  H   H13       1.0  0.94276  0.08148  0.95095  1.0000
  H   H14       1.0  0.92872  0.02531  0.94092  1.0000
  H   H15       1.0  0.94131  0.06947  0.03169  1.0000
  H   H16       1.0  0.00253  0.01261  0.03675  1.0000
  H   H17       1.0  0.99638  0.98480  0.95798  1.0000
  H   H18       1.0  0.01126  0.03943  0.94259  1.0000
  H   H19       1.0  0.05200  0.93314  0.98426  1.0000
  H   H20       1.0  0.13146  0.91612  0.99658  1.0000
  H   H21       1.0  0.18769  0.00180  0.06782  1.0000
  H   H22       1.0  0.22267  0.95779  0.07212  1.0000
  H   H23       1.0  0.16340  0.05603  0.98368  1.0000
  H   H24       1.0  0.08359  0.07294  0.97171  1.0000
