data_image0
_chemical_formula_structural       C7NCONC4NC3SC2NC5H26
_chemical_formula_sum              "C22 N4 O1 S1 H26"
_cell_length_a       30
_cell_length_b       30
_cell_length_c       30
_cell_angle_alpha    90
_cell_angle_beta     90
_cell_angle_gamma    90

_space_group_name_H-M_alt    "P 1"
_space_group_IT_number       1

loop_
  _space_group_symop_operation_xyz
  'x, y, z'

loop_
  _atom_site_type_symbol
  _atom_site_label
  _atom_site_symmetry_multiplicity
  _atom_site_fract_x
  _atom_site_fract_y
  _atom_site_fract_z
  _atom_site_occupancy
  C   C1        1.0  0.79241  0.96722  0.08713  1.0000
  C   C2        1.0  0.79883  0.94385  0.04255  1.0000
  C   C3        1.0  0.81265  0.97395  0.00333  1.0000
  C   C4        1.0  0.77714  0.00906  0.99204  1.0000
  C   C5        1.0  0.79081  0.03692  0.95168  1.0000
  C   C6        1.0  0.83633  0.05858  0.95842  1.0000
  C   C7        1.0  0.87219  0.02409  0.97001  1.0000
  N   N1        1.0  0.91464  0.04645  0.97793  1.0000
  C   C8        1.0  0.95438  0.02328  0.97459  1.0000
  O   O1        1.0  0.95627  0.98422  0.96306  1.0000
  N   N2        1.0  0.98976  0.05058  0.98526  1.0000
  C   C9        1.0  0.03506  0.03873  0.98857  1.0000
  C   C10       1.0  0.06583  0.07313  0.99452  1.0000
  C   C11       1.0  0.11138  0.06374  0.99838  1.0000
  C   C12       1.0  0.12746  0.02048  0.99660  1.0000
  N   N3        1.0  0.17145  0.01327  0.00042  1.0000
  C   C13       1.0  0.18669  0.97075  0.99872  1.0000
  C   C14       1.0  0.23491  0.96517  0.00304  1.0000
  C   C15       1.0  0.25922  0.93392  0.97943  1.0000
  S   S1        1.0  0.31462  0.93764  0.99300  1.0000
  C   C16       1.0  0.30251  0.98057  0.02890  1.0000
  C   C17       1.0  0.33878  0.00247  0.05465  1.0000
  N   N4        1.0  0.26021  0.99173  0.03136  1.0000
  C   C18       1.0  0.15852  0.93437  0.99324  1.0000
  C   C19       1.0  0.11295  0.94203  0.98923  1.0000
  C   C20       1.0  0.09653  0.98566  0.99083  1.0000
  C   C21       1.0  0.05065  0.99495  0.98695  1.0000
  C   C22       1.0  0.85823  0.99616  0.01065  1.0000
  H   H1        1.0  0.82314  0.98317  0.09854  1.0000
  H   H2        1.0  0.76612  0.99242  0.08547  1.0000
  H   H3        1.0  0.78265  0.94288  0.11252  1.0000
  H   H4        1.0  0.82403  0.91768  0.04676  1.0000
  H   H5        1.0  0.76769  0.92675  0.03388  1.0000
  H   H6        1.0  0.81585  0.95193  0.97420  1.0000
  H   H7        1.0  0.74518  0.99274  0.98515  1.0000
  H   H8        1.0  0.77184  0.03145  0.02043  1.0000
  H   H9        1.0  0.76572  0.06276  0.94556  1.0000
  H   H10       1.0  0.79169  0.01570  0.92192  1.0000
  H   H11       1.0  0.84583  0.07670  0.92812  1.0000
  H   H12       1.0  0.83400  0.08357  0.98506  1.0000
  H   H13       1.0  0.87660  0.00171  0.94139  1.0000
  H   H14       1.0  0.91436  0.07071  0.00123  1.0000
  H   H15       1.0  0.98270  0.08345  0.98588  1.0000
  H   H16       1.0  0.05517  0.10771  0.99618  1.0000
  H   H17       1.0  0.13496  0.09090  0.00293  1.0000
  H   H18       1.0  0.24782  0.90994  0.95512  1.0000
  H   H19       1.0  0.36321  0.01772  0.03224  1.0000
  H   H20       1.0  0.35590  0.97837  0.07604  1.0000
  H   H21       1.0  0.32519  0.02875  0.07600  1.0000
  H   H22       1.0  0.17118  0.90052  0.99258  1.0000
  H   H23       1.0  0.09041  0.91396  0.98501  1.0000
  H   H24       1.0  0.02768  0.96727  0.98286  1.0000
  H   H25       1.0  0.85728  0.01776  0.04015  1.0000
  H   H26       1.0  0.88339  0.97052  0.01745  1.0000
