data_image0
_chemical_formula_structural       C4ONC2ONC3NC5OCNC6H32
_chemical_formula_sum              "C21 O3 N4 H32"
_cell_length_a       30
_cell_length_b       30
_cell_length_c       30
_cell_angle_alpha    90
_cell_angle_beta     90
_cell_angle_gamma    90

_space_group_name_H-M_alt    "P 1"
_space_group_IT_number       1

loop_
  _space_group_symop_operation_xyz
  'x, y, z'

loop_
  _atom_site_type_symbol
  _atom_site_label
  _atom_site_symmetry_multiplicity
  _atom_site_fract_x
  _atom_site_fract_y
  _atom_site_fract_z
  _atom_site_occupancy
  C   C1        1.0  0.23046  0.06122  0.04306  1.0000
  C   C2        1.0  0.24458  0.04671  0.99660  1.0000
  C   C3        1.0  0.23029  0.00043  0.98571  1.0000
  C   C4        1.0  0.25613  0.96263  0.98733  1.0000
  O   O1        1.0  0.23187  0.92695  0.97472  1.0000
  N   N1        1.0  0.18922  0.94026  0.96455  1.0000
  C   C5        1.0  0.18749  0.98461  0.97097  1.0000
  C   C6        1.0  0.14708  0.01183  0.96331  1.0000
  O   O2        1.0  0.14848  0.05272  0.96815  1.0000
  N   N2        1.0  0.10724  0.99186  0.95080  1.0000
  C   C7        1.0  0.09734  0.94466  0.94384  1.0000
  C   C8        1.0  0.04915  0.94388  0.92727  1.0000
  C   C9        1.0  0.02823  0.98510  0.94888  1.0000
  N   N3        1.0  0.01645  0.97525  0.99540  1.0000
  C   C10       1.0  0.96980  0.96347  0.00171  1.0000
  C   C11       1.0  0.93880  0.00429  0.99745  1.0000
  C   C12       1.0  0.89598  0.99589  0.02411  1.0000
  C   C13       1.0  0.90705  0.98940  0.07365  1.0000
  C   C14       1.0  0.95376  0.97002  0.07945  1.0000
  O   O3        1.0  0.96481  0.94125  0.04355  1.0000
  C   C15       1.0  0.86606  0.95854  0.00400  1.0000
  N   N4        1.0  0.83000  0.99061  0.99620  1.0000
  C   C16       1.0  0.79198  0.98192  0.02564  1.0000
  C   C17       1.0  0.76098  0.02251  0.02638  1.0000
  C   C18       1.0  0.78641  0.06645  0.03275  1.0000
  C   C19       1.0  0.83444  0.05776  0.04711  1.0000
  C   C20       1.0  0.85713  0.02849  0.01196  1.0000
  C   C21       1.0  0.06716  0.01850  0.94559  1.0000
  H   H1        1.0  0.24448  0.03932  0.06861  1.0000
  H   H2        1.0  0.19416  0.06076  0.04681  1.0000
  H   H3        1.0  0.24208  0.09518  0.04965  1.0000
  H   H4        1.0  0.23139  0.07005  0.97180  1.0000
  H   H5        1.0  0.28104  0.04911  0.99410  1.0000
  H   H6        1.0  0.29042  0.95588  0.99596  1.0000
  H   H7        1.0  0.11984  0.93023  0.91902  1.0000
  H   H8        1.0  0.10079  0.92707  0.97573  1.0000
  H   H9        1.0  0.04867  0.94786  0.89089  1.0000
  H   H10       1.0  0.03213  0.91252  0.93515  1.0000
  H   H11       1.0  0.99973  0.99768  0.92987  1.0000
  H   H12       1.0  0.02424  0.00107  0.01582  1.0000
  H   H13       1.0  0.96030  0.93845  0.97684  1.0000
  H   H14       1.0  0.93163  0.01083  0.96213  1.0000
  H   H15       1.0  0.95514  0.03444  0.01036  1.0000
  H   H16       1.0  0.88253  0.96738  0.08951  1.0000
  H   H17       1.0  0.90591  0.02103  0.09186  1.0000
  H   H18       1.0  0.97889  0.99642  0.08227  1.0000
  H   H19       1.0  0.95523  0.95076  0.11045  1.0000
  H   H20       1.0  0.87847  0.94390  0.97290  1.0000
  H   H21       1.0  0.85839  0.93058  0.02630  1.0000
  H   H22       1.0  0.80228  0.97385  0.05985  1.0000
  H   H23       1.0  0.77337  0.95298  0.01328  1.0000
  H   H24       1.0  0.74169  0.02425  0.99532  1.0000
  H   H25       1.0  0.73671  0.01840  0.05344  1.0000
  H   H26       1.0  0.76932  0.08746  0.05723  1.0000
  H   H27       1.0  0.78633  0.08492  0.00116  1.0000
  H   H28       1.0  0.83428  0.04208  0.08007  1.0000
  H   H29       1.0  0.85252  0.08930  0.05053  1.0000
  H   H30       1.0  0.86594  0.05022  0.98376  1.0000
  H   H31       1.0  0.06836  0.03338  0.91221  1.0000
  H   H32       1.0  0.06535  0.04547  0.97010  1.0000
