data_image0
_chemical_formula_structural       C8NSO2C4NCOC5H26
_chemical_formula_sum              "C18 N2 S1 O3 H26"
_cell_length_a       30
_cell_length_b       30
_cell_length_c       30
_cell_angle_alpha    90
_cell_angle_beta     90
_cell_angle_gamma    90

_space_group_name_H-M_alt    "P 1"
_space_group_IT_number       1

loop_
  _space_group_symop_operation_xyz
  'x, y, z'

loop_
  _atom_site_type_symbol
  _atom_site_label
  _atom_site_symmetry_multiplicity
  _atom_site_fract_x
  _atom_site_fract_y
  _atom_site_fract_z
  _atom_site_occupancy
  C   C1        1.0  0.80172  0.00943  0.06009  1.0000
  C   C2        1.0  0.84531  0.98569  0.04904  1.0000
  C   C3        1.0  0.87637  0.01356  0.01865  1.0000
  C   C4        1.0  0.85752  0.01759  0.97074  1.0000
  C   C5        1.0  0.88149  0.98869  0.93607  1.0000
  C   C6        1.0  0.89594  0.94393  0.95514  1.0000
  C   C7        1.0  0.92684  0.94903  0.99541  1.0000
  C   C8        1.0  0.92451  0.99545  0.01669  1.0000
  N   N1        1.0  0.94509  0.99361  0.06095  1.0000
  S   S1        1.0  0.97602  0.03575  0.08019  1.0000
  O   O1        1.0  0.95634  0.07722  0.06558  1.0000
  O   O2        1.0  0.98398  0.02641  0.12682  1.0000
  C   C9        1.0  0.02702  0.02755  0.05136  1.0000
  C   C10       1.0  0.05704  0.99547  0.06665  1.0000
  C   C11       1.0  0.09739  0.98929  0.04421  1.0000
  C   C12       1.0  0.10809  0.01503  0.00666  1.0000
  N   N2        1.0  0.14944  0.00652  0.98604  1.0000
  C   C13       1.0  0.16681  0.02667  0.94851  1.0000
  O   O3        1.0  0.14899  0.05548  0.92584  1.0000
  C   C14       1.0  0.21211  0.01101  0.93452  1.0000
  C   C15       1.0  0.24785  0.99783  0.96747  1.0000
  C   C16       1.0  0.22671  0.96296  0.93837  1.0000
  C   C17       1.0  0.07784  0.04733  0.99207  1.0000
  C   C18       1.0  0.03741  0.05382  0.01442  1.0000
  H   H1        1.0  0.80811  0.04168  0.07593  1.0000
  H   H2        1.0  0.78211  0.98924  0.08332  1.0000
  H   H3        1.0  0.78127  0.01507  0.03047  1.0000
  H   H4        1.0  0.83770  0.95345  0.03370  1.0000
  H   H5        1.0  0.86184  0.97855  0.08079  1.0000
  H   H6        1.0  0.87746  0.04725  0.03291  1.0000
  H   H7        1.0  0.85993  0.05246  0.95992  1.0000
  H   H8        1.0  0.82195  0.00948  0.96995  1.0000
  H   H9        1.0  0.91086  0.00653  0.92353  1.0000
  H   H10       1.0  0.85958  0.98356  0.90728  1.0000
  H   H11       1.0  0.86626  0.92497  0.96494  1.0000
  H   H12       1.0  0.91260  0.92411  0.92936  1.0000
  H   H13       1.0  0.91897  0.92288  0.01977  1.0000
  H   H14       1.0  0.96137  0.94266  0.98509  1.0000
  H   H15       1.0  0.94423  0.01805  0.99572  1.0000
  H   H16       1.0  0.93345  0.97232  0.08465  1.0000
  H   H17       1.0  0.04931  0.97539  0.09583  1.0000
  H   H18       1.0  0.12033  0.96411  0.05659  1.0000
  H   H19       1.0  0.16844  0.98277  0.00044  1.0000
  H   H20       1.0  0.22385  0.02857  0.90501  1.0000
  H   H21       1.0  0.28182  0.00778  0.96000  1.0000
  H   H22       1.0  0.24046  0.99795  0.00280  1.0000
  H   H23       1.0  0.24640  0.94935  0.91124  1.0000
  H   H24       1.0  0.20456  0.93875  0.95341  1.0000
  H   H25       1.0  0.08478  0.06836  0.96343  1.0000
  H   H26       1.0  0.01451  0.07939  0.00271  1.0000
