data_image0
_chemical_formula_structural       C8OCOC4OC2NC2BrCNH23
_chemical_formula_sum              "C18 O3 N2 Br1 H23"
_cell_length_a       30
_cell_length_b       30
_cell_length_c       30
_cell_angle_alpha    90
_cell_angle_beta     90
_cell_angle_gamma    90

_space_group_name_H-M_alt    "P 1"
_space_group_IT_number       1

loop_
  _space_group_symop_operation_xyz
  'x, y, z'

loop_
  _atom_site_type_symbol
  _atom_site_label
  _atom_site_symmetry_multiplicity
  _atom_site_fract_x
  _atom_site_fract_y
  _atom_site_fract_z
  _atom_site_occupancy
  C   C1        1.0  0.95088  0.85318  0.94762  1.0000
  C   C2        1.0  0.98181  0.89308  0.95230  1.0000
  C   C3        1.0  0.96371  0.93450  0.97393  1.0000
  C   C4        1.0  0.92129  0.94847  0.98222  1.0000
  C   C5        1.0  0.87674  0.92999  0.97103  1.0000
  C   C6        1.0  0.92286  0.98865  0.00700  1.0000
  C   C7        1.0  0.89572  0.01898  0.02727  1.0000
  C   C8        1.0  0.84720  0.02467  0.03209  1.0000
  O   O1        1.0  0.92239  0.05025  0.04793  1.0000
  C   C9        1.0  0.96609  0.03852  0.04037  1.0000
  O   O2        1.0  0.99784  0.06342  0.05856  1.0000
  C   C10       1.0  0.98350  0.10239  0.08131  1.0000
  C   C11       1.0  0.96724  0.00112  0.01446  1.0000
  C   C12       1.0  0.99871  0.96913  0.99346  1.0000
  C   C13       1.0  0.02852  0.98966  0.95661  1.0000
  O   O3        1.0  0.05809  0.95604  0.93943  1.0000
  C   C14       1.0  0.05821  0.02876  0.97105  1.0000
  C   C15       1.0  0.08915  0.01749  0.00998  1.0000
  N   N1        1.0  0.12249  0.05195  0.01710  1.0000
  C   C16       1.0  0.16683  0.04929  0.00687  1.0000
  C   C17       1.0  0.18450  0.08944  0.01947  1.0000
  Br  Br1       1.0  0.24345  0.10864  0.01513  1.0000
  C   C18       1.0  0.14895  0.11420  0.03678  1.0000
  N   N2        1.0  0.11068  0.09138  0.03533  1.0000
  H   H1        1.0  0.97024  0.82351  0.93874  1.0000
  H   H2        1.0  0.93321  0.84602  0.97873  1.0000
  H   H3        1.0  0.92664  0.85829  0.92088  1.0000
  H   H4        1.0  0.99461  0.90158  0.91916  1.0000
  H   H5        1.0  0.01041  0.88189  0.97217  1.0000
  H   H6        1.0  0.87832  0.90344  0.94631  1.0000
  H   H7        1.0  0.85516  0.95576  0.95672  1.0000
  H   H8        1.0  0.86046  0.91667  0.00085  1.0000
  H   H9        1.0  0.83225  0.99492  0.04699  1.0000
  H   H10       1.0  0.83172  0.03024  0.99953  1.0000
  H   H11       1.0  0.83920  0.05317  0.05341  1.0000
  H   H12       1.0  0.96560  0.12487  0.05879  1.0000
  H   H13       1.0  0.01309  0.11984  0.09353  1.0000
  H   H14       1.0  0.96274  0.09383  0.11010  1.0000
  H   H15       1.0  0.01869  0.95184  0.01873  1.0000
  H   H16       1.0  0.00752  0.00073  0.92876  1.0000
  H   H17       1.0  0.06807  0.96615  0.91024  1.0000
  H   H18       1.0  0.07889  0.03852  0.94243  1.0000
  H   H19       1.0  0.03790  0.05802  0.97901  1.0000
  H   H20       1.0  0.07090  0.01368  0.04133  1.0000
  H   H21       1.0  0.10720  0.98632  0.00389  1.0000
  H   H22       1.0  0.18137  0.01988  0.99203  1.0000
  H   H23       1.0  0.14892  0.14762  0.05034  1.0000
