data_image0
_chemical_formula_structural       C4NCOC2NC2OC4OCNC7OC2H35
_chemical_formula_sum              "C23 N3 O4 H35"
_cell_length_a       30
_cell_length_b       30
_cell_length_c       30
_cell_angle_alpha    90
_cell_angle_beta     90
_cell_angle_gamma    90

_space_group_name_H-M_alt    "P 1"
_space_group_IT_number       1

loop_
  _space_group_symop_operation_xyz
  'x, y, z'

loop_
  _atom_site_type_symbol
  _atom_site_label
  _atom_site_symmetry_multiplicity
  _atom_site_fract_x
  _atom_site_fract_y
  _atom_site_fract_z
  _atom_site_occupancy
  C   C1        1.0  0.00836  0.96870  0.93230  1.0000
  C   C2        1.0  0.98092  0.93518  0.95875  1.0000
  C   C3        1.0  0.97020  0.94619  0.00848  1.0000
  C   C4        1.0  0.01172  0.93950  0.03894  1.0000
  N   N1        1.0  0.04619  0.97309  0.03368  1.0000
  C   C5        1.0  0.09052  0.96239  0.02723  1.0000
  O   O1        1.0  0.10448  0.92412  0.02446  1.0000
  C   C6        1.0  0.11994  0.00328  0.02378  1.0000
  C   C7        1.0  0.16755  0.99118  0.01023  1.0000
  N   N2        1.0  0.19424  0.03124  0.00005  1.0000
  C   C8        1.0  0.23543  0.01885  0.97579  1.0000
  C   C9        1.0  0.26359  0.06037  0.96537  1.0000
  O   O2        1.0  0.27558  0.08359  0.00542  1.0000
  C   C10       1.0  0.23622  0.09655  0.02921  1.0000
  C   C11       1.0  0.20725  0.05590  0.04077  1.0000
  C   C12       1.0  0.93511  0.91196  0.02225  1.0000
  C   C13       1.0  0.89191  0.92285  0.02195  1.0000
  O   O3        1.0  0.85682  0.89358  0.02683  1.0000
  C   C14       1.0  0.81765  0.91728  0.01670  1.0000
  N   N3        1.0  0.77877  0.89347  0.01651  1.0000
  C   C15       1.0  0.82513  0.96091  0.00858  1.0000
  C   C16       1.0  0.79398  0.99673  0.99767  1.0000
  C   C17       1.0  0.78429  0.03201  0.03259  1.0000
  C   C18       1.0  0.74841  0.00017  0.01912  1.0000
  C   C19       1.0  0.87367  0.96629  0.01086  1.0000
  C   C20       1.0  0.90163  0.00109  0.00498  1.0000
  C   C21       1.0  0.88991  0.04802  0.99206  1.0000
  O   O4        1.0  0.91193  0.05812  0.95107  1.0000
  C   C22       1.0  0.90369  0.10268  0.93731  1.0000
  C   C23       1.0  0.95125  0.99435  0.01473  1.0000
  H   H1        1.0  0.01641  0.95467  0.89961  1.0000
  H   H2        1.0  0.98951  0.99933  0.92619  1.0000
  H   H3        1.0  0.03961  0.97766  0.94870  1.0000
  H   H4        1.0  0.99805  0.90283  0.95730  1.0000
  H   H5        1.0  0.94966  0.93052  0.94019  1.0000
  H   H6        1.0  0.02601  0.90624  0.03373  1.0000
  H   H7        1.0  0.00178  0.94106  0.07415  1.0000
  H   H8        1.0  0.03859  0.00523  0.04095  1.0000
  H   H9        1.0  0.11947  0.02003  0.05620  1.0000
  H   H10       1.0  0.10531  0.02582  0.99894  1.0000
  H   H11       1.0  0.18352  0.97094  0.03617  1.0000
  H   H12       1.0  0.16576  0.97019  0.98034  1.0000
  H   H13       1.0  0.22691  0.00230  0.94437  1.0000
  H   H14       1.0  0.25532  0.99560  0.99592  1.0000
  H   H15       1.0  0.24571  0.08314  0.94307  1.0000
  H   H16       1.0  0.29452  0.05065  0.94867  1.0000
  H   H17       1.0  0.21747  0.12070  0.00927  1.0000
  H   H18       1.0  0.24683  0.11328  0.05984  1.0000
  H   H19       1.0  0.22602  0.03393  0.06315  1.0000
  H   H20       1.0  0.17768  0.06772  0.05854  1.0000
  H   H21       1.0  0.94490  0.87762  0.02821  1.0000
  H   H22       1.0  0.75143  0.91256  0.02148  1.0000
  H   H23       1.0  0.78027  0.86699  0.03757  1.0000
  H   H24       1.0  0.79602  0.00752  0.96317  1.0000
  H   H25       1.0  0.78118  0.06636  0.02176  1.0000
  H   H26       1.0  0.79851  0.02837  0.06569  1.0000
  H   H27       1.0  0.73757  0.97665  0.04420  1.0000
  H   H28       1.0  0.72133  0.01271  0.99864  1.0000
  H   H29       1.0  0.90141  0.07100  0.01811  1.0000
  H   H30       1.0  0.85438  0.05336  0.98744  1.0000
  H   H31       1.0  0.91979  0.10789  0.90503  1.0000
  H   H32       1.0  0.86787  0.10867  0.93355  1.0000
  H   H33       1.0  0.91777  0.12618  0.96137  1.0000
  H   H34       1.0  0.95591  0.00471  0.04960  1.0000
  H   H35       1.0  0.97116  0.01792  0.99525  1.0000
