data_image0
_chemical_formula_structural       C6NC5NCOC12NCH37
_chemical_formula_sum              "C25 N3 O1 H37"
_cell_length_a       30
_cell_length_b       30
_cell_length_c       30
_cell_angle_alpha    90
_cell_angle_beta     90
_cell_angle_gamma    90

_space_group_name_H-M_alt    "P 1"
_space_group_IT_number       1

loop_
  _space_group_symop_operation_xyz
  'x, y, z'

loop_
  _atom_site_type_symbol
  _atom_site_label
  _atom_site_symmetry_multiplicity
  _atom_site_fract_x
  _atom_site_fract_y
  _atom_site_fract_z
  _atom_site_occupancy
  C   C1        1.0  0.80149  0.14766  0.97033  1.0000
  C   C2        1.0  0.85115  0.13926  0.96430  1.0000
  C   C3        1.0  0.86313  0.09119  0.97151  1.0000
  C   C4        1.0  0.86624  0.07292  0.01407  1.0000
  C   C5        1.0  0.87679  0.02792  0.01913  1.0000
  C   C6        1.0  0.88447  0.00205  0.98160  1.0000
  N   N1        1.0  0.89520  0.95710  0.98315  1.0000
  C   C7        1.0  0.93813  0.94066  0.00314  1.0000
  C   C8        1.0  0.97809  0.96955  0.98409  1.0000
  C   C9        1.0  0.98731  0.96236  0.93405  1.0000
  C   C10       1.0  0.02008  0.99682  0.91537  1.0000
  C   C11       1.0  0.04818  0.01976  0.95104  1.0000
  N   N2        1.0  0.05976  0.98905  0.98695  1.0000
  C   C12       1.0  0.10167  0.98527  0.00654  1.0000
  O   O1        1.0  0.10791  0.96128  0.03930  1.0000
  C   C13       1.0  0.13942  0.01178  0.98551  1.0000
  C   C14       1.0  0.18403  0.00476  0.00941  1.0000
  C   C15       1.0  0.22160  0.02613  0.98401  1.0000
  C   C16       1.0  0.23686  0.06280  0.00420  1.0000
  C   C17       1.0  0.21235  0.07221  0.04642  1.0000
  C   C18       1.0  0.18688  0.02884  0.05466  1.0000
  C   C19       1.0  0.02274  0.96601  0.00910  1.0000
  C   C20       1.0  0.93402  0.94298  0.05482  1.0000
  C   C21       1.0  0.96305  0.91070  0.08165  1.0000
  C   C22       1.0  0.96016  0.86301  0.06491  1.0000
  C   C23       1.0  0.97013  0.86019  0.01534  1.0000
  C   C24       1.0  0.93938  0.89052  0.98876  1.0000
  N   N3        1.0  0.88098  0.01892  0.94015  1.0000
  C   C25       1.0  0.87049  0.06259  0.93593  1.0000
  H   H1        1.0  0.79380  0.18278  0.96402  1.0000
  H   H2        1.0  0.78171  0.12736  0.94726  1.0000
  H   H3        1.0  0.79071  0.13967  0.00430  1.0000
  H   H4        1.0  0.86120  0.14972  0.93072  1.0000
  H   H5        1.0  0.87022  0.16007  0.98755  1.0000
  H   H6        1.0  0.86001  0.09319  0.04343  1.0000
  H   H7        1.0  0.87758  0.01354  0.05220  1.0000
  H   H8        1.0  0.89423  0.94868  0.95014  1.0000
  H   H9        1.0  0.96826  0.00463  0.98779  1.0000
  H   H10       1.0  0.95672  0.96332  0.91421  1.0000
  H   H11       1.0  0.00191  0.92920  0.92909  1.0000
  H   H12       1.0  0.00194  0.02231  0.89646  1.0000
  H   H13       1.0  0.04202  0.98005  0.89140  1.0000
  H   H14       1.0  0.07757  0.03442  0.93538  1.0000
  H   H15       1.0  0.02962  0.04739  0.96618  1.0000
  H   H16       1.0  0.14262  0.00078  0.95078  1.0000
  H   H17       1.0  0.13049  0.04724  0.98590  1.0000
  H   H18       1.0  0.19071  0.96911  0.01391  1.0000
  H   H19       1.0  0.23418  0.01331  0.95273  1.0000
  H   H20       1.0  0.26328  0.08377  0.99147  1.0000
  H   H21       1.0  0.23505  0.07954  0.07398  1.0000
  H   H22       1.0  0.18969  0.10045  0.04187  1.0000
  H   H23       1.0  0.15437  0.03509  0.07001  1.0000
  H   H24       1.0  0.20584  0.00809  0.07812  1.0000
  H   H25       1.0  0.03306  0.93138  0.01322  1.0000
  H   H26       1.0  0.01969  0.98094  0.04230  1.0000
  H   H27       1.0  0.94108  0.97686  0.06657  1.0000
  H   H28       1.0  0.89927  0.93604  0.06416  1.0000
  H   H29       1.0  0.95260  0.91174  0.11668  1.0000
  H   H30       1.0  0.99788  0.92145  0.08152  1.0000
  H   H31       1.0  0.92667  0.84984  0.07141  1.0000
  H   H32       1.0  0.98354  0.84194  0.08345  1.0000
  H   H33       1.0  0.96539  0.82569  0.00423  1.0000
  H   H34       1.0  0.00506  0.86814  0.00875  1.0000
  H   H35       1.0  0.94678  0.88709  0.95317  1.0000
  H   H36       1.0  0.90556  0.87673  0.99234  1.0000
  H   H37       1.0  0.86804  0.07415  0.90168  1.0000
