data_image0
_chemical_formula_structural       C6OCOC4ONC5O2H23
_chemical_formula_sum              "C16 O5 N1 H23"
_cell_length_a       30
_cell_length_b       30
_cell_length_c       30
_cell_angle_alpha    90
_cell_angle_beta     90
_cell_angle_gamma    90

_space_group_name_H-M_alt    "P 1"
_space_group_IT_number       1

loop_
  _space_group_symop_operation_xyz
  'x, y, z'

loop_
  _atom_site_type_symbol
  _atom_site_label
  _atom_site_symmetry_multiplicity
  _atom_site_fract_x
  _atom_site_fract_y
  _atom_site_fract_z
  _atom_site_occupancy
  C   C1        1.0  0.09163  0.09587  0.10757  1.0000
  C   C2        1.0  0.10367  0.04833  0.09463  1.0000
  C   C3        1.0  0.08002  0.03247  0.05222  1.0000
  C   C4        1.0  0.03038  0.02317  0.05829  1.0000
  C   C5        1.0  0.02924  0.97355  0.06713  1.0000
  C   C6        1.0  0.06669  0.95691  0.03737  1.0000
  O   O1        1.0  0.05025  0.95363  0.99274  1.0000
  C   C7        1.0  0.05039  0.91249  0.97412  1.0000
  O   O2        1.0  0.06493  0.87853  0.99158  1.0000
  C   C8        1.0  0.03247  0.91389  0.92665  1.0000
  C   C9        1.0  0.07168  0.91861  0.89459  1.0000
  C   C10       1.0  0.99850  0.95128  0.91899  1.0000
  C   C11       1.0  0.95865  0.94763  0.94989  1.0000
  O   O3        1.0  0.95020  0.91439  0.97206  1.0000
  N   N1        1.0  0.93248  0.98517  0.94996  1.0000
  C   C12       1.0  0.89529  0.98916  0.98028  1.0000
  C   C13       1.0  0.87166  0.03145  0.97062  1.0000
  C   C14       1.0  0.82868  0.04150  0.95764  1.0000
  C   C15       1.0  0.82663  0.08842  0.95337  1.0000
  C   C16       1.0  0.86877  0.10392  0.96265  1.0000
  O   O4        1.0  0.89639  0.06966  0.97332  1.0000
  O   O5        1.0  0.10031  0.99105  0.03888  1.0000
  H   H1        1.0  0.09905  0.11917  0.08041  1.0000
  H   H2        1.0  0.05625  0.09887  0.11608  1.0000
  H   H3        1.0  0.11108  0.10630  0.13669  1.0000
  H   H4        1.0  0.13989  0.04618  0.08954  1.0000
  H   H5        1.0  0.09632  0.02575  0.12247  1.0000
  H   H6        1.0  0.08541  0.05679  0.02554  1.0000
  H   H7        1.0  0.01271  0.03035  0.02709  1.0000
  H   H8        1.0  0.01435  0.04267  0.08457  1.0000
  H   H9        1.0  0.03725  0.96733  0.10223  1.0000
  H   H10       1.0  0.99670  0.95878  0.05948  1.0000
  H   H11       1.0  0.08102  0.92581  0.04992  1.0000
  H   H12       1.0  0.01589  0.88182  0.92069  1.0000
  H   H13       1.0  0.09620  0.89210  0.89994  1.0000
  H   H14       1.0  0.08889  0.95051  0.89930  1.0000
  H   H15       1.0  0.06036  0.91671  0.85991  1.0000
  H   H16       1.0  0.01405  0.98408  0.92364  1.0000
  H   H17       1.0  0.98597  0.94976  0.88464  1.0000
  H   H18       1.0  0.94456  0.01380  0.93669  1.0000
  H   H19       1.0  0.87337  0.96035  0.97583  1.0000
  H   H20       1.0  0.90801  0.98880  0.01445  1.0000
  H   H21       1.0  0.80209  0.01775  0.95205  1.0000
  H   H22       1.0  0.79810  0.10847  0.94415  1.0000
  H   H23       1.0  0.88357  0.13677  0.96355  1.0000
