data_image0
_chemical_formula_structural       C4NCOC4BrC2OC2SH16
_chemical_formula_sum              "C13 N1 O2 Br1 S1 H16"
_cell_length_a       30
_cell_length_b       30
_cell_length_c       30
_cell_angle_alpha    90
_cell_angle_beta     90
_cell_angle_gamma    90

_space_group_name_H-M_alt    "P 1"
_space_group_IT_number       1

loop_
  _space_group_symop_operation_xyz
  'x, y, z'

loop_
  _atom_site_type_symbol
  _atom_site_label
  _atom_site_symmetry_multiplicity
  _atom_site_fract_x
  _atom_site_fract_y
  _atom_site_fract_z
  _atom_site_occupancy
  C   C1        1.0  0.89486  0.91289  0.98887  1.0000
  C   C2        1.0  0.93119  0.94842  0.98836  1.0000
  C   C3        1.0  0.94513  0.96458  0.03508  1.0000
  C   C4        1.0  0.98786  0.99301  0.03310  1.0000
  N   N1        1.0  0.98292  0.03508  0.00858  1.0000
  C   C5        1.0  0.01323  0.05120  0.97725  1.0000
  O   O1        1.0  0.00521  0.08306  0.95270  1.0000
  C   C6        1.0  0.05664  0.02864  0.97133  1.0000
  C   C7        1.0  0.06609  0.01088  0.92918  1.0000
  C   C8        1.0  0.10697  0.99010  0.92133  1.0000
  C   C9        1.0  0.13840  0.98761  0.95550  1.0000
  Br  Br1       1.0  0.19376  0.95939  0.94487  1.0000
  C   C10       1.0  0.12960  0.00588  0.99741  1.0000
  C   C11       1.0  0.08870  0.02665  0.00519  1.0000
  O   O2        1.0  0.08025  0.04509  0.04598  1.0000
  C   C12       1.0  0.94196  0.06073  0.01511  1.0000
  C   C13       1.0  0.91796  0.05113  0.05884  1.0000
  S   S1        1.0  0.89919  0.99345  0.06377  1.0000
  H   H1        1.0  0.88914  0.90048  0.95502  1.0000
  H   H2        1.0  0.90457  0.88455  0.00970  1.0000
  H   H3        1.0  0.86318  0.92602  0.00122  1.0000
  H   H4        1.0  0.96044  0.93403  0.97174  1.0000
  H   H5        1.0  0.92023  0.97630  0.96745  1.0000
  H   H6        1.0  0.95257  0.93514  0.05544  1.0000
  H   H7        1.0  0.01435  0.97278  0.01832  1.0000
  H   H8        1.0  0.99885  0.00154  0.06692  1.0000
  H   H9        1.0  0.04165  0.01353  0.90251  1.0000
  H   H10       1.0  0.11403  0.97633  0.88856  1.0000
  H   H11       1.0  0.15459  0.00382  0.02352  1.0000
  H   H12       1.0  0.10765  0.04625  0.06323  1.0000
  H   H13       1.0  0.92008  0.05412  0.98657  1.0000
  H   H14       1.0  0.95030  0.09630  0.01379  1.0000
  H   H15       1.0  0.88865  0.07265  0.06188  1.0000
  H   H16       1.0  0.93976  0.05838  0.08721  1.0000
