data_image0
_chemical_formula_structural       C6O2C7FCOH17
_chemical_formula_sum              "C14 O3 F1 H17"
_cell_length_a       30
_cell_length_b       30
_cell_length_c       30
_cell_angle_alpha    90
_cell_angle_beta     90
_cell_angle_gamma    90

_space_group_name_H-M_alt    "P 1"
_space_group_IT_number       1

loop_
  _space_group_symop_operation_xyz
  'x, y, z'

loop_
  _atom_site_type_symbol
  _atom_site_label
  _atom_site_symmetry_multiplicity
  _atom_site_fract_x
  _atom_site_fract_y
  _atom_site_fract_z
  _atom_site_occupancy
  C   C1        1.0  0.90633  0.90740  0.99812  1.0000
  C   C2        1.0  0.92672  0.94182  0.96689  1.0000
  C   C3        1.0  0.94651  0.98125  0.99220  1.0000
  C   C4        1.0  0.96636  0.01637  0.96173  1.0000
  C   C5        1.0  0.99887  0.04015  0.99235  1.0000
  C   C6        1.0  0.97967  0.07734  0.02061  1.0000
  O   O1        1.0  0.00061  0.09551  0.05061  1.0000
  O   O2        1.0  0.93763  0.08876  0.00828  1.0000
  C   C7        1.0  0.91864  0.12420  0.03383  1.0000
  C   C8        1.0  0.01463  0.00283  0.02339  1.0000
  C   C9        1.0  0.06103  0.98659  0.01142  1.0000
  C   C10       1.0  0.06836  0.94752  0.98669  1.0000
  C   C11       1.0  0.11157  0.93390  0.97575  1.0000
  C   C12       1.0  0.14803  0.95922  0.98936  1.0000
  C   C13       1.0  0.14099  0.99789  0.01383  1.0000
  F   F1        1.0  0.17603  0.02229  0.02690  1.0000
  C   C14       1.0  0.09814  0.01175  0.02491  1.0000
  O   O3        1.0  0.98273  0.96689  0.01984  1.0000
  H   H1        1.0  0.89188  0.87998  0.97888  1.0000
  H   H2        1.0  0.87983  0.92222  0.01834  1.0000
  H   H3        1.0  0.93142  0.89336  0.02057  1.0000
  H   H4        1.0  0.95272  0.92528  0.94724  1.0000
  H   H5        1.0  0.90110  0.95363  0.94368  1.0000
  H   H6        1.0  0.92119  0.99610  0.01400  1.0000
  H   H7        1.0  0.94099  0.03753  0.94635  1.0000
  H   H8        1.0  0.98518  0.00044  0.93470  1.0000
  H   H9        1.0  0.02560  0.05559  0.97276  1.0000
  H   H10       1.0  0.88556  0.13138  0.02028  1.0000
  H   H11       1.0  0.91494  0.11414  0.06870  1.0000
  H   H12       1.0  0.93899  0.15436  0.03110  1.0000
  H   H13       1.0  0.01490  0.01243  0.05867  1.0000
  H   H14       1.0  0.04033  0.92714  0.97593  1.0000
  H   H15       1.0  0.11667  0.90348  0.95675  1.0000
  H   H16       1.0  0.18176  0.94906  0.98118  1.0000
  H   H17       1.0  0.09406  0.04220  0.04414  1.0000
