data_image0
_chemical_formula_structural       C3N2C6NCONC4FCClCH20
_chemical_formula_sum              "C16 N4 O1 F1 Cl1 H20"
_cell_length_a       30
_cell_length_b       30
_cell_length_c       30
_cell_angle_alpha    90
_cell_angle_beta     90
_cell_angle_gamma    90

_space_group_name_H-M_alt    "P 1"
_space_group_IT_number       1

loop_
  _space_group_symop_operation_xyz
  'x, y, z'

loop_
  _atom_site_type_symbol
  _atom_site_label
  _atom_site_symmetry_multiplicity
  _atom_site_fract_x
  _atom_site_fract_y
  _atom_site_fract_z
  _atom_site_occupancy
  C   C1        1.0  0.88294  0.08885  0.93262  1.0000
  C   C2        1.0  0.90945  0.04564  0.93189  1.0000
  C   C3        1.0  0.90476  0.01976  0.97417  1.0000
  N   N1        1.0  0.86858  0.99465  0.98086  1.0000
  N   N2        1.0  0.87480  0.97662  0.02137  1.0000
  C   C4        1.0  0.84064  0.94798  0.03958  1.0000
  C   C5        1.0  0.91452  0.98847  0.04068  1.0000
  C   C6        1.0  0.92941  0.97223  0.08531  1.0000
  C   C7        1.0  0.95831  0.93076  0.08143  1.0000
  C   C8        1.0  0.93498  0.01707  0.01056  1.0000
  C   C9        1.0  0.97889  0.03965  0.01482  1.0000
  N   N3        1.0  0.01176  0.01239  0.99257  1.0000
  C   C10       1.0  0.05573  0.02563  0.99280  1.0000
  O   O1        1.0  0.06796  0.06093  0.00921  1.0000
  N   N4        1.0  0.08211  0.99441  0.97184  1.0000
  C   C11       1.0  0.12896  0.99430  0.96851  1.0000
  C   C12       1.0  0.15658  0.02267  0.99308  1.0000
  C   C13       1.0  0.20291  0.02030  0.98859  1.0000
  C   C14       1.0  0.22171  0.98948  0.95954  1.0000
  F   F1        1.0  0.26622  0.98774  0.95581  1.0000
  C   C15       1.0  0.19465  0.96098  0.93494  1.0000
  Cl  Cl1       1.0  0.21759  0.92286  0.89883  1.0000
  C   C16       1.0  0.14834  0.96322  0.93947  1.0000
  H   H1        1.0  0.88868  0.10770  0.90191  1.0000
  H   H2        1.0  0.89238  0.10980  0.96106  1.0000
  H   H3        1.0  0.84709  0.08219  0.93517  1.0000
  H   H4        1.0  0.89839  0.02510  0.90370  1.0000
  H   H5        1.0  0.94460  0.05319  0.92568  1.0000
  H   H6        1.0  0.82843  0.96292  0.07053  1.0000
  H   H7        1.0  0.85512  0.91514  0.04573  1.0000
  H   H8        1.0  0.81313  0.94514  0.01579  1.0000
  H   H9        1.0  0.94830  0.99850  0.10220  1.0000
  H   H10       1.0  0.90070  0.96506  0.10674  1.0000
  H   H11       1.0  0.98840  0.93725  0.06177  1.0000
  H   H12       1.0  0.96882  0.91945  0.11451  1.0000
  H   H13       1.0  0.94014  0.90341  0.06537  1.0000
  H   H14       1.0  0.97862  0.07278  0.99945  1.0000
  H   H15       1.0  0.98866  0.04379  0.04979  1.0000
  H   H16       1.0  0.00643  0.97923  0.99349  1.0000
  H   H17       1.0  0.06537  0.97284  0.95216  1.0000
  H   H18       1.0  0.14297  0.04689  0.01640  1.0000
  H   H19       1.0  0.22431  0.04236  0.00764  1.0000
  H   H20       1.0  0.12763  0.94069  0.92002  1.0000
