data_image0
_chemical_formula_structural       C4NC3NCOC11OC2SO2C2H34
_chemical_formula_sum              "C23 N2 O4 S1 H34"
_cell_length_a       30
_cell_length_b       30
_cell_length_c       30
_cell_angle_alpha    90
_cell_angle_beta     90
_cell_angle_gamma    90

_space_group_name_H-M_alt    "P 1"
_space_group_IT_number       1

loop_
  _space_group_symop_operation_xyz
  'x, y, z'

loop_
  _atom_site_type_symbol
  _atom_site_label
  _atom_site_symmetry_multiplicity
  _atom_site_fract_x
  _atom_site_fract_y
  _atom_site_fract_z
  _atom_site_occupancy
  C   C1        1.0  0.91109  0.18200  0.98052  1.0000
  C   C2        1.0  0.92620  0.14039  0.00517  1.0000
  C   C3        1.0  0.95806  0.10920  0.98051  1.0000
  C   C4        1.0  0.98095  0.07684  0.01264  1.0000
  N   N1        1.0  0.00713  0.04170  0.98974  1.0000
  C   C5        1.0  0.01244  0.99959  0.01780  1.0000
  C   C6        1.0  0.99651  0.95725  0.99304  1.0000
  C   C7        1.0  0.01862  0.94861  0.94828  1.0000
  N   N2        1.0  0.94843  0.96237  0.98653  1.0000
  C   C8        1.0  0.91842  0.95342  0.02018  1.0000
  O   O1        1.0  0.93080  0.93971  0.05676  1.0000
  C   C9        1.0  0.86918  0.96245  0.00881  1.0000
  C   C10       1.0  0.86203  0.01238  0.00024  1.0000
  C   C11       1.0  0.83976  0.94815  0.04831  1.0000
  C   C12       1.0  0.85557  0.93543  0.96751  1.0000
  C   C13       1.0  0.06176  0.00942  0.03034  1.0000
  C   C14       1.0  0.09840  0.97113  0.03088  1.0000
  C   C15       1.0  0.09117  0.93176  0.05567  1.0000
  C   C16       1.0  0.12253  0.89726  0.05767  1.0000
  C   C17       1.0  0.16304  0.90092  0.03511  1.0000
  C   C18       1.0  0.19553  0.86334  0.03808  1.0000
  C   C19       1.0  0.23871  0.86645  0.01265  1.0000
  O   O2        1.0  0.18678  0.83060  0.06112  1.0000
  C   C20       1.0  0.17175  0.93964  0.01095  1.0000
  C   C21       1.0  0.14005  0.97400  0.00925  1.0000
  S   S1        1.0  0.06324  0.04901  0.98627  1.0000
  O   O3        1.0  0.07569  0.09280  0.00187  1.0000
  O   O4        1.0  0.07885  0.03038  0.94473  1.0000
  C   C22       1.0  0.94408  0.09250  0.93471  1.0000
  C   C23       1.0  0.98211  0.12482  0.93865  1.0000
  H   H1        1.0  0.89439  0.17395  0.94912  1.0000
  H   H2        1.0  0.88750  0.20077  0.00111  1.0000
  H   H3        1.0  0.93924  0.20405  0.97329  1.0000
  H   H4        1.0  0.94216  0.15119  0.03626  1.0000
  H   H5        1.0  0.89665  0.12111  0.01478  1.0000
  H   H6        1.0  0.00126  0.09526  0.03673  1.0000
  H   H7        1.0  0.95446  0.06072  0.03203  1.0000
  H   H8        1.0  0.99282  0.00168  0.04878  1.0000
  H   H9        1.0  0.00181  0.92819  0.01452  1.0000
  H   H10       1.0  0.05461  0.94418  0.95152  1.0000
  H   H11       1.0  0.00519  0.91812  0.93328  1.0000
  H   H12       1.0  0.01233  0.97561  0.92454  1.0000
  H   H13       1.0  0.93873  0.98245  0.96118  1.0000
  H   H14       1.0  0.82666  0.01997  0.99518  1.0000
  H   H15       1.0  0.87992  0.02381  0.97057  1.0000
  H   H16       1.0  0.87386  0.03232  0.02846  1.0000
  H   H17       1.0  0.80437  0.95376  0.04123  1.0000
  H   H18       1.0  0.84412  0.91267  0.05588  1.0000
  H   H19       1.0  0.84815  0.96689  0.07854  1.0000
  H   H20       1.0  0.86242  0.89986  0.97231  1.0000
  H   H21       1.0  0.87380  0.94605  0.93770  1.0000
  H   H22       1.0  0.81993  0.93917  0.96043  1.0000
  H   H23       1.0  0.06353  0.02768  0.06212  1.0000
  H   H24       1.0  0.06020  0.92759  0.07427  1.0000
  H   H25       1.0  0.11502  0.86754  0.07714  1.0000
  H   H26       1.0  0.25770  0.83568  0.01752  1.0000
  H   H27       1.0  0.25872  0.89422  0.02513  1.0000
  H   H28       1.0  0.23217  0.87008  0.97699  1.0000
  H   H29       1.0  0.20290  0.94432  0.99308  1.0000
  H   H30       1.0  0.14874  0.00366  0.99013  1.0000
  H   H31       1.0  0.95219  0.05872  0.92472  1.0000
  H   H32       1.0  0.91319  0.10439  0.92023  1.0000
  H   H33       1.0  0.97709  0.15827  0.92600  1.0000
  H   H34       1.0  0.01529  0.11256  0.93127  1.0000
