data_image0
_chemical_formula_structural       C3NOC3NCONC8H19
_chemical_formula_sum              "C15 N3 O2 H19"
_cell_length_a       30
_cell_length_b       30
_cell_length_c       30
_cell_angle_alpha    90
_cell_angle_beta     90
_cell_angle_gamma    90

_space_group_name_H-M_alt    "P 1"
_space_group_IT_number       1

loop_
  _space_group_symop_operation_xyz
  'x, y, z'

loop_
  _atom_site_type_symbol
  _atom_site_label
  _atom_site_symmetry_multiplicity
  _atom_site_fract_x
  _atom_site_fract_y
  _atom_site_fract_z
  _atom_site_occupancy
  C   C1        1.0  0.18425  0.08033  0.96133  1.0000
  C   C2        1.0  0.13451  0.07493  0.96888  1.0000
  C   C3        1.0  0.12147  0.03116  0.99091  1.0000
  N   N1        1.0  0.14967  0.99834  0.99152  1.0000
  O   O1        1.0  0.13609  0.95988  0.01466  1.0000
  C   C4        1.0  0.09127  0.94923  0.00972  1.0000
  C   C5        1.0  0.08418  0.89975  0.00918  1.0000
  C   C6        1.0  0.05977  0.98120  0.00944  1.0000
  N   N2        1.0  0.01459  0.97171  0.00784  1.0000
  C   C7        1.0  0.97962  0.00132  0.01531  1.0000
  O   O2        1.0  0.98462  0.03975  0.02805  1.0000
  N   N3        1.0  0.93927  0.98079  0.00612  1.0000
  C   C8        1.0  0.89588  0.99782  0.01338  1.0000
  C   C9        1.0  0.88817  0.03624  0.03873  1.0000
  C   C10       1.0  0.84494  0.05210  0.04575  1.0000
  C   C11       1.0  0.80873  0.02963  0.02767  1.0000
  C   C12       1.0  0.81571  0.99115  0.00264  1.0000
  C   C13       1.0  0.85903  0.97474  0.99527  1.0000
  C   C14       1.0  0.86418  0.93300  0.96792  1.0000
  C   C15       1.0  0.07511  0.02871  0.01038  1.0000
  H   H1        1.0  0.19698  0.05487  0.93849  1.0000
  H   H2        1.0  0.20267  0.07752  0.99272  1.0000
  H   H3        1.0  0.19136  0.11303  0.94682  1.0000
  H   H4        1.0  0.11678  0.07707  0.93702  1.0000
  H   H5        1.0  0.12254  0.10218  0.99007  1.0000
  H   H6        1.0  0.04939  0.88978  0.00541  1.0000
  H   H7        1.0  0.09663  0.88504  0.04018  1.0000
  H   H8        1.0  0.10270  0.88498  0.98139  1.0000
  H   H9        1.0  0.00565  0.93933  0.00779  1.0000
  H   H10       1.0  0.94138  0.95321  0.98713  1.0000
  H   H11       1.0  0.91532  0.05470  0.05397  1.0000
  H   H12       1.0  0.83979  0.08206  0.06547  1.0000
  H   H13       1.0  0.77511  0.04197  0.03311  1.0000
  H   H14       1.0  0.78694  0.97393  0.98882  1.0000
  H   H15       1.0  0.83189  0.91997  0.95693  1.0000
  H   H16       1.0  0.88394  0.93983  0.93801  1.0000
  H   H17       1.0  0.88032  0.90686  0.98761  1.0000
  H   H18       1.0  0.07547  0.04214  0.04429  1.0000
  H   H19       1.0  0.05407  0.04974  0.98921  1.0000
