data_image0
_chemical_formula_structural       C6NOC5NSO2NC5NCH28
_chemical_formula_sum              "C17 N4 O3 S1 H28"
_cell_length_a       30
_cell_length_b       30
_cell_length_c       30
_cell_angle_alpha    90
_cell_angle_beta     90
_cell_angle_gamma    90

_space_group_name_H-M_alt    "P 1"
_space_group_IT_number       1

loop_
  _space_group_symop_operation_xyz
  'x, y, z'

loop_
  _atom_site_type_symbol
  _atom_site_label
  _atom_site_symmetry_multiplicity
  _atom_site_fract_x
  _atom_site_fract_y
  _atom_site_fract_z
  _atom_site_occupancy
  C   C1        1.0  0.24462  0.01526  0.92767  1.0000
  C   C2        1.0  0.25177  0.03422  0.97410  1.0000
  C   C3        1.0  0.21099  0.03150  0.00432  1.0000
  C   C4        1.0  0.16563  0.05148  0.98918  1.0000
  C   C5        1.0  0.14291  0.01449  0.01723  1.0000
  C   C6        1.0  0.09965  0.99448  0.99681  1.0000
  N   N1        1.0  0.09746  0.97717  0.95564  1.0000
  O   O1        1.0  0.05303  0.96400  0.95185  1.0000
  C   C7        1.0  0.03302  0.97481  0.99123  1.0000
  C   C8        1.0  0.98471  0.96439  0.99559  1.0000
  C   C9        1.0  0.97630  0.93186  0.03444  1.0000
  C   C10       1.0  0.93843  0.94732  0.06481  1.0000
  C   C11       1.0  0.89826  0.96233  0.03752  1.0000
  N   N2        1.0  0.90947  0.99908  0.00623  1.0000
  S   S1        1.0  0.88026  0.00118  0.95782  1.0000
  O   O2        1.0  0.88096  0.95726  0.93819  1.0000
  O   O3        1.0  0.89565  0.03972  0.93337  1.0000
  N   N3        1.0  0.82929  0.01251  0.97570  1.0000
  C   C12       1.0  0.81994  0.05515  0.99795  1.0000
  C   C13       1.0  0.77247  0.04917  0.01509  1.0000
  C   C14       1.0  0.77149  0.00013  0.02776  1.0000
  C   C15       1.0  0.79766  0.97807  0.99008  1.0000
  C   C16       1.0  0.95837  0.00770  0.00136  1.0000
  N   N4        1.0  0.06017  0.99369  0.01998  1.0000
  C   C17       1.0  0.18590  0.98658  0.01078  1.0000
  H   H1        1.0  0.23638  0.97978  0.92876  1.0000
  H   H2        1.0  0.27511  0.01882  0.90791  1.0000
  H   H3        1.0  0.21791  0.03265  0.90999  1.0000
  H   H4        1.0  0.27955  0.01651  0.98989  1.0000
  H   H5        1.0  0.26204  0.06917  0.97110  1.0000
  H   H6        1.0  0.22076  0.04548  0.03691  1.0000
  H   H7        1.0  0.15907  0.04972  0.95329  1.0000
  H   H8        1.0  0.15929  0.08563  0.00036  1.0000
  H   H9        1.0  0.13794  0.02447  0.05211  1.0000
  H   H10       1.0  0.97347  0.94813  0.96475  1.0000
  H   H11       1.0  0.96751  0.89914  0.02035  1.0000
  H   H12       1.0  0.00630  0.92623  0.05469  1.0000
  H   H13       1.0  0.95000  0.97464  0.08621  1.0000
  H   H14       1.0  0.92864  0.92015  0.08718  1.0000
  H   H15       1.0  0.87232  0.97426  0.06039  1.0000
  H   H16       1.0  0.88503  0.93330  0.01960  1.0000
  H   H17       1.0  0.84286  0.06035  0.02589  1.0000
  H   H18       1.0  0.82210  0.08322  0.97479  1.0000
  H   H19       1.0  0.76507  0.07139  0.04311  1.0000
  H   H20       1.0  0.74859  0.05560  0.98821  1.0000
  H   H21       1.0  0.73763  0.98690  0.03090  1.0000
  H   H22       1.0  0.78870  0.99526  0.05967  1.0000
  H   H23       1.0  0.81342  0.94728  0.00134  1.0000
  H   H24       1.0  0.77545  0.97014  0.96210  1.0000
  H   H25       1.0  0.96495  0.03039  0.97350  1.0000
  H   H26       1.0  0.96944  0.02620  0.03097  1.0000
  H   H27       1.0  0.19628  0.96703  0.03979  1.0000
  H   H28       1.0  0.18576  0.96459  0.98165  1.0000
