data_image0
_chemical_formula_structural       C3OC4NCS2C6OC2OC4O2H21
_chemical_formula_sum              "C20 O5 N1 S2 H21"
_cell_length_a       30
_cell_length_b       30
_cell_length_c       30
_cell_angle_alpha    90
_cell_angle_beta     90
_cell_angle_gamma    90

_space_group_name_H-M_alt    "P 1"
_space_group_IT_number       1

loop_
  _space_group_symop_operation_xyz
  'x, y, z'

loop_
  _atom_site_type_symbol
  _atom_site_label
  _atom_site_symmetry_multiplicity
  _atom_site_fract_x
  _atom_site_fract_y
  _atom_site_fract_z
  _atom_site_occupancy
  C   C1        1.0  0.33407  0.01975  0.01385  1.0000
  C   C2        1.0  0.28808  0.01817  0.03503  1.0000
  C   C3        1.0  0.26297  0.97720  0.01935  1.0000
  O   O1        1.0  0.21704  0.97786  0.03182  1.0000
  C   C4        1.0  0.20641  0.97971  0.99034  1.0000
  C   C5        1.0  0.16686  0.98054  0.96944  1.0000
  C   C6        1.0  0.12460  0.97892  0.99283  1.0000
  C   C7        1.0  0.08335  0.98164  0.97518  1.0000
  N   N1        1.0  0.07630  0.98803  0.93041  1.0000
  C   C8        1.0  0.03723  0.98837  0.90709  1.0000
  S   S1        1.0  0.03897  0.99911  0.85247  1.0000
  S   S2        1.0  0.98801  0.97570  0.93452  1.0000
  C   C9        1.0  0.99905  0.98551  0.98985  1.0000
  C   C10       1.0  0.96751  0.99693  0.01972  1.0000
  C   C11       1.0  0.92010  0.00416  0.01025  1.0000
  C   C12       1.0  0.90424  0.04729  0.00241  1.0000
  C   C13       1.0  0.85914  0.05425  0.99325  1.0000
  C   C14       1.0  0.82973  0.01829  0.99261  1.0000
  O   O2        1.0  0.78627  0.02726  0.98226  1.0000
  C   C15       1.0  0.75502  0.01250  0.01524  1.0000
  C   C16       1.0  0.74616  0.05079  0.04749  1.0000
  O   O3        1.0  0.71308  0.00162  0.99510  1.0000
  C   C17       1.0  0.71643  0.96409  0.96644  1.0000
  C   C18       1.0  0.84547  0.97509  0.99940  1.0000
  C   C19       1.0  0.89058  0.96807  0.00859  1.0000
  C   C20       1.0  0.04512  0.97899  0.00758  1.0000
  O   O4        1.0  0.05151  0.97268  0.04763  1.0000
  O   O5        1.0  0.24634  0.98101  0.97489  1.0000
  H   H1        1.0  0.33170  0.02165  0.97748  1.0000
  H   H2        1.0  0.35335  0.98992  0.02225  1.0000
  H   H3        1.0  0.35248  0.04896  0.02562  1.0000
  H   H4        1.0  0.26988  0.04879  0.02684  1.0000
  H   H5        1.0  0.29167  0.01719  0.07137  1.0000
  H   H6        1.0  0.27879  0.94490  0.02596  1.0000
  H   H7        1.0  0.16775  0.98233  0.93340  1.0000
  H   H8        1.0  0.12794  0.97469  0.02886  1.0000
  H   H9        1.0  0.10326  0.99319  0.91076  1.0000
  H   H10       1.0  0.97619  0.00202  0.05462  1.0000
  H   H11       1.0  0.92677  0.07567  0.00305  1.0000
  H   H12       1.0  0.84694  0.08772  0.98669  1.0000
  H   H13       1.0  0.76649  0.98342  0.03422  1.0000
  H   H14       1.0  0.72063  0.04161  0.07190  1.0000
  H   H15       1.0  0.73404  0.08018  0.02950  1.0000
  H   H16       1.0  0.77655  0.06055  0.06515  1.0000
  H   H17       1.0  0.68317  0.95659  0.95355  1.0000
  H   H18       1.0  0.73832  0.97125  0.93817  1.0000
  H   H19       1.0  0.72858  0.93497  0.98473  1.0000
  H   H20       1.0  0.82328  0.94661  0.99695  1.0000
  H   H21       1.0  0.90258  0.93428  0.01395  1.0000
