data_image0
_chemical_formula_structural       C3NC2SC4O2C8NH26
_chemical_formula_sum              "C17 N2 S1 O2 H26"
_cell_length_a       30
_cell_length_b       30
_cell_length_c       30
_cell_angle_alpha    90
_cell_angle_beta     90
_cell_angle_gamma    90

_space_group_name_H-M_alt    "P 1"
_space_group_IT_number       1

loop_
  _space_group_symop_operation_xyz
  'x, y, z'

loop_
  _atom_site_type_symbol
  _atom_site_label
  _atom_site_symmetry_multiplicity
  _atom_site_fract_x
  _atom_site_fract_y
  _atom_site_fract_z
  _atom_site_occupancy
  C   C1        1.0  0.22572  0.92047  0.94537  1.0000
  C   C2        1.0  0.20995  0.96860  0.94642  1.0000
  C   C3        1.0  0.16851  0.97351  0.97421  1.0000
  N   N1        1.0  0.12902  0.96459  0.95473  1.0000
  C   C4        1.0  0.09244  0.96838  0.98084  1.0000
  C   C5        1.0  0.09347  0.98116  0.02505  1.0000
  S   S1        1.0  0.04540  0.98652  0.05879  1.0000
  C   C6        1.0  0.02038  0.03729  0.03411  1.0000
  C   C7        1.0  0.98587  0.02158  0.00088  1.0000
  C   C8        1.0  0.94386  0.00913  0.01019  1.0000
  C   C9        1.0  0.91359  0.99448  0.97408  1.0000
  O   O1        1.0  0.92408  0.99148  0.93488  1.0000
  O   O2        1.0  0.87348  0.98566  0.99280  1.0000
  C   C10       1.0  0.83666  0.96997  0.96561  1.0000
  C   C11       1.0  0.82375  0.00436  0.93005  1.0000
  C   C12       1.0  0.84710  0.92430  0.94510  1.0000
  C   C13       1.0  0.79759  0.96478  0.99837  1.0000
  C   C14       1.0  0.00306  0.06962  0.07085  1.0000
  C   C15       1.0  0.98147  0.11127  0.05022  1.0000
  C   C16       1.0  0.04038  0.08517  0.10239  1.0000
  C   C17       1.0  0.13572  0.98879  0.04161  1.0000
  N   N2        1.0  0.17351  0.98538  0.01726  1.0000
  H   H1        1.0  0.23285  0.90813  0.97904  1.0000
  H   H2        1.0  0.20044  0.89868  0.93063  1.0000
  H   H3        1.0  0.25616  0.91760  0.92551  1.0000
  H   H4        1.0  0.23634  0.98994  0.96001  1.0000
  H   H5        1.0  0.20321  0.98022  0.91237  1.0000
  H   H6        1.0  0.06129  0.96028  0.96418  1.0000
  H   H7        1.0  0.04632  0.05515  0.01544  1.0000
  H   H8        1.0  0.99696  0.02091  0.96625  1.0000
  H   H9        1.0  0.93066  0.00886  0.04383  1.0000
  H   H10       1.0  0.79233  0.99534  0.91370  1.0000
  H   H11       1.0  0.84915  0.00716  0.90392  1.0000
  H   H12       1.0  0.82011  0.03764  0.94484  1.0000
  H   H13       1.0  0.81777  0.91006  0.92861  1.0000
  H   H14       1.0  0.85851  0.90089  0.97074  1.0000
  H   H15       1.0  0.87373  0.92635  0.92021  1.0000
  H   H16       1.0  0.78972  0.99675  0.01440  1.0000
  H   H17       1.0  0.76746  0.95251  0.98177  1.0000
  H   H18       1.0  0.80622  0.94161  0.02530  1.0000
  H   H19       1.0  0.97766  0.05288  0.09124  1.0000
  H   H20       1.0  0.95214  0.10290  0.03027  1.0000
  H   H21       1.0  0.00505  0.12904  0.02875  1.0000
  H   H22       1.0  0.97044  0.13435  0.07626  1.0000
  H   H23       1.0  0.05423  0.05756  0.12181  1.0000
  H   H24       1.0  0.06765  0.10088  0.08379  1.0000
  H   H25       1.0  0.02769  0.10960  0.12643  1.0000
  H   H26       1.0  0.14094  0.99825  0.07625  1.0000
