data_image0
_chemical_formula_structural       C6NCOC4NC3ONC6OC4H27
_chemical_formula_sum              "C24 N3 O3 H27"
_cell_length_a       30
_cell_length_b       30
_cell_length_c       30
_cell_angle_alpha    90
_cell_angle_beta     90
_cell_angle_gamma    90

_space_group_name_H-M_alt    "P 1"
_space_group_IT_number       1

loop_
  _space_group_symop_operation_xyz
  'x, y, z'

loop_
  _atom_site_type_symbol
  _atom_site_label
  _atom_site_symmetry_multiplicity
  _atom_site_fract_x
  _atom_site_fract_y
  _atom_site_fract_z
  _atom_site_occupancy
  C   C1        1.0  0.35011  0.01353  0.97411  1.0000
  C   C2        1.0  0.32891  0.97567  0.00035  1.0000
  C   C3        1.0  0.27883  0.97933  0.00129  1.0000
  C   C4        1.0  0.25735  0.00173  0.03610  1.0000
  C   C5        1.0  0.21085  0.00560  0.03686  1.0000
  C   C6        1.0  0.18507  0.98725  0.00281  1.0000
  N   N1        1.0  0.13815  0.98980  0.00105  1.0000
  C   C7        1.0  0.10986  0.00709  0.03308  1.0000
  O   O1        1.0  0.12017  0.02145  0.06988  1.0000
  C   C8        1.0  0.06170  0.00619  0.02096  1.0000
  C   C9        1.0  0.04702  0.01400  0.97750  1.0000
  C   C10       1.0  0.00136  0.01272  0.96757  1.0000
  C   C11       1.0  0.96946  0.00392  0.00057  1.0000
  N   N2        1.0  0.92311  0.00249  0.99072  1.0000
  C   C12       1.0  0.88952  0.99605  0.02465  1.0000
  C   C13       1.0  0.84583  0.00886  0.00224  1.0000
  C   C14       1.0  0.80662  0.98375  0.02196  1.0000
  O   O2        1.0  0.81219  0.95136  0.04650  1.0000
  N   N3        1.0  0.76458  0.99837  0.01072  1.0000
  C   C15       1.0  0.72514  0.97637  0.02841  1.0000
  C   C16       1.0  0.68762  0.00980  0.02148  1.0000
  C   C17       1.0  0.70233  0.03490  0.97990  1.0000
  C   C18       1.0  0.75257  0.03838  0.98600  1.0000
  C   C19       1.0  0.85403  0.99676  0.95372  1.0000
  C   C20       1.0  0.90380  0.00151  0.94827  1.0000
  O   O3        1.0  0.92172  0.00300  0.91173  1.0000
  C   C21       1.0  0.98482  0.99695  0.04423  1.0000
  C   C22       1.0  0.03037  0.99823  0.05442  1.0000
  C   C23       1.0  0.20658  0.96519  0.96775  1.0000
  C   C24       1.0  0.25302  0.96125  0.96695  1.0000
  H   H1        1.0  0.33885  0.01351  0.93938  1.0000
  H   H2        1.0  0.38644  0.01014  0.97420  1.0000
  H   H3        1.0  0.34172  0.04599  0.98858  1.0000
  H   H4        1.0  0.34192  0.97559  0.03453  1.0000
  H   H5        1.0  0.33858  0.94355  0.98578  1.0000
  H   H6        1.0  0.27657  0.01647  0.06307  1.0000
  H   H7        1.0  0.19585  0.02340  0.06457  1.0000
  H   H8        1.0  0.12381  0.97498  0.97437  1.0000
  H   H9        1.0  0.07031  0.02209  0.95096  1.0000
  H   H10       1.0  0.99174  0.01952  0.93334  1.0000
  H   H11       1.0  0.89087  0.96113  0.03529  1.0000
  H   H12       1.0  0.89550  0.01777  0.05337  1.0000
  H   H13       1.0  0.84081  0.04490  0.00578  1.0000
  H   H14       1.0  0.71972  0.94602  0.00882  1.0000
  H   H15       1.0  0.72953  0.96727  0.06346  1.0000
  H   H16       1.0  0.65507  0.99385  0.01782  1.0000
  H   H17       1.0  0.68599  0.03283  0.04983  1.0000
  H   H18       1.0  0.69463  0.01508  0.95015  1.0000
  H   H19       1.0  0.68632  0.06747  0.97645  1.0000
  H   H20       1.0  0.77014  0.04023  0.95421  1.0000
  H   H21       1.0  0.76155  0.06730  0.00639  1.0000
  H   H22       1.0  0.83719  0.01970  0.93097  1.0000
  H   H23       1.0  0.84436  0.96246  0.94585  1.0000
  H   H24       1.0  0.96206  0.98989  0.07149  1.0000
  H   H25       1.0  0.04128  0.99272  0.08859  1.0000
  H   H26       1.0  0.18759  0.95066  0.94055  1.0000
  H   H27       1.0  0.26889  0.94395  0.93932  1.0000
