data_image0
_chemical_formula_structural       C3OC4ONC5OH23
_chemical_formula_sum              "C12 O3 N1 H23"
_cell_length_a       30
_cell_length_b       30
_cell_length_c       30
_cell_angle_alpha    90
_cell_angle_beta     90
_cell_angle_gamma    90

_space_group_name_H-M_alt    "P 1"
_space_group_IT_number       1

loop_
  _space_group_symop_operation_xyz
  'x, y, z'

loop_
  _atom_site_type_symbol
  _atom_site_label
  _atom_site_symmetry_multiplicity
  _atom_site_fract_x
  _atom_site_fract_y
  _atom_site_fract_z
  _atom_site_occupancy
  C   C1        1.0  0.94234  0.91119  0.01936  1.0000
  C   C2        1.0  0.94599  0.95756  0.03999  1.0000
  C   C3        1.0  0.93505  0.99566  0.00705  1.0000
  O   O1        1.0  0.96011  0.99094  0.96680  1.0000
  C   C4        1.0  0.00356  0.00930  0.96269  1.0000
  C   C5        1.0  0.03920  0.98649  0.99075  1.0000
  C   C6        1.0  0.08597  0.00026  0.97611  1.0000
  C   C7        1.0  0.12181  0.97976  0.00527  1.0000
  O   O2        1.0  0.11393  0.95789  0.03885  1.0000
  N   N1        1.0  0.16431  0.98876  0.99022  1.0000
  C   C8        1.0  0.20288  0.97454  0.01508  1.0000
  C   C9        1.0  0.93969  0.04120  0.03063  1.0000
  C   C10       1.0  0.91999  0.07930  0.00310  1.0000
  C   C11       1.0  0.87266  0.06816  0.98864  1.0000
  C   C12       1.0  0.87108  0.02237  0.96702  1.0000
  O   O3        1.0  0.88850  0.98938  0.99638  1.0000
  H   H1        1.0  0.96570  0.90694  0.99169  1.0000
  H   H2        1.0  0.90863  0.90477  0.00700  1.0000
  H   H3        1.0  0.95002  0.88579  0.04442  1.0000
  H   H4        1.0  0.92274  0.95893  0.06822  1.0000
  H   H5        1.0  0.97942  0.96132  0.05391  1.0000
  H   H6        1.0  0.00326  0.04525  0.96866  1.0000
  H   H7        1.0  0.01234  0.00530  0.92743  1.0000
  H   H8        1.0  0.03559  0.95020  0.98863  1.0000
  H   H9        1.0  0.03471  0.99536  0.02586  1.0000
  H   H10       1.0  0.09177  0.98982  0.94157  1.0000
  H   H11       1.0  0.08941  0.03660  0.97785  1.0000
  H   H12       1.0  0.16850  0.01165  0.96583  1.0000
  H   H13       1.0  0.20805  0.99766  0.04276  1.0000
  H   H14       1.0  0.19789  0.94088  0.02813  1.0000
  H   H15       1.0  0.23179  0.97513  0.99295  1.0000
  H   H16       1.0  0.97444  0.04874  0.03877  1.0000
  H   H17       1.0  0.92143  0.04012  0.06235  1.0000
  H   H18       1.0  0.92009  0.11012  0.02270  1.0000
  H   H19       1.0  0.94045  0.08553  0.97352  1.0000
  H   H20       1.0  0.85110  0.06822  0.01817  1.0000
  H   H21       1.0  0.86001  0.09357  0.96570  1.0000
  H   H22       1.0  0.83644  0.01345  0.95978  1.0000
  H   H23       1.0  0.88917  0.02189  0.93529  1.0000
