data_image0
_chemical_formula_structural       C6NC4ONC5OCOC5H30
_chemical_formula_sum              "C21 N2 O3 H30"
_cell_length_a       30
_cell_length_b       30
_cell_length_c       30
_cell_angle_alpha    90
_cell_angle_beta     90
_cell_angle_gamma    90

_space_group_name_H-M_alt    "P 1"
_space_group_IT_number       1

loop_
  _space_group_symop_operation_xyz
  'x, y, z'

loop_
  _atom_site_type_symbol
  _atom_site_label
  _atom_site_symmetry_multiplicity
  _atom_site_fract_x
  _atom_site_fract_y
  _atom_site_fract_z
  _atom_site_occupancy
  C   C1        1.0  0.80849  0.88962  0.99628  1.0000
  C   C2        1.0  0.79918  0.93598  0.97793  1.0000
  C   C3        1.0  0.82041  0.97290  0.00598  1.0000
  C   C4        1.0  0.80904  0.01973  0.98888  1.0000
  C   C5        1.0  0.85204  0.04691  0.99204  1.0000
  C   C6        1.0  0.88394  0.01926  0.02107  1.0000
  N   N1        1.0  0.93113  0.03088  0.01449  1.0000
  C   C7        1.0  0.96176  0.00223  0.03941  1.0000
  C   C8        1.0  0.00956  0.00939  0.02284  1.0000
  C   C9        1.0  0.02064  0.05856  0.01358  1.0000
  C   C10       1.0  0.06852  0.06898  0.02685  1.0000
  O   O1        1.0  0.07862  0.09593  0.05588  1.0000
  N   N2        1.0  0.09970  0.04522  0.00298  1.0000
  C   C11       1.0  0.14674  0.05280  0.00968  1.0000
  C   C12       1.0  0.17398  0.01941  0.98394  1.0000
  C   C13       1.0  0.19735  0.03247  0.94515  1.0000
  C   C14       1.0  0.22222  0.00160  0.92060  1.0000
  C   C15       1.0  0.22296  0.95814  0.93539  1.0000
  O   O2        1.0  0.24512  0.92384  0.91572  1.0000
  C   C16       1.0  0.23342  0.88755  0.94502  1.0000
  O   O3        1.0  0.20489  0.90076  0.98142  1.0000
  C   C17       1.0  0.20014  0.94501  0.97288  1.0000
  C   C18       1.0  0.17547  0.97469  0.99785  1.0000
  C   C19       1.0  0.98763  0.08901  0.03754  1.0000
  C   C20       1.0  0.93951  0.07843  0.02404  1.0000
  C   C21       1.0  0.87143  0.97169  0.00702  1.0000
  H   H1        1.0  0.79703  0.88666  0.03080  1.0000
  H   H2        1.0  0.79098  0.86452  0.97640  1.0000
  H   H3        1.0  0.84411  0.88181  0.99523  1.0000
  H   H4        1.0  0.81123  0.93779  0.94348  1.0000
  H   H5        1.0  0.76300  0.94106  0.97681  1.0000
  H   H6        1.0  0.80808  0.97009  0.04037  1.0000
  H   H7        1.0  0.78283  0.03457  0.00952  1.0000
  H   H8        1.0  0.79682  0.01952  0.95446  1.0000
  H   H9        1.0  0.84585  0.08012  0.00586  1.0000
  H   H10       1.0  0.86578  0.05139  0.95842  1.0000
  H   H11       1.0  0.87488  0.02380  0.05630  1.0000
  H   H12       1.0  0.95942  0.00869  0.07535  1.0000
  H   H13       1.0  0.95421  0.96684  0.03463  1.0000
  H   H14       1.0  0.03250  0.99498  0.04740  1.0000
  H   H15       1.0  0.01463  0.99043  0.99192  1.0000
  H   H16       1.0  0.01789  0.06494  0.97760  1.0000
  H   H17       1.0  0.08998  0.02918  0.97493  1.0000
  H   H18       1.0  0.15429  0.08694  0.99909  1.0000
  H   H19       1.0  0.15443  0.05068  0.04535  1.0000
  H   H20       1.0  0.19614  0.06696  0.93391  1.0000
  H   H21       1.0  0.24027  0.01145  0.89087  1.0000
  H   H22       1.0  0.26412  0.87329  0.95877  1.0000
  H   H23       1.0  0.21627  0.86190  0.92546  1.0000
  H   H24       1.0  0.15768  0.96354  0.02731  1.0000
  H   H25       1.0  0.99123  0.08506  0.07376  1.0000
  H   H26       1.0  0.99491  0.12410  0.03032  1.0000
  H   H27       1.0  0.91778  0.09066  0.05082  1.0000
  H   H28       1.0  0.93135  0.09763  0.99403  1.0000
  H   H29       1.0  0.88340  0.94658  0.03064  1.0000
  H   H30       1.0  0.88500  0.96382  0.97395  1.0000
