data_image0
_chemical_formula_structural       C4NC15NCNH33
_chemical_formula_sum              "C20 N3 H33"
_cell_length_a       30
_cell_length_b       30
_cell_length_c       30
_cell_angle_alpha    90
_cell_angle_beta     90
_cell_angle_gamma    90

_space_group_name_H-M_alt    "P 1"
_space_group_IT_number       1

loop_
  _space_group_symop_operation_xyz
  'x, y, z'

loop_
  _atom_site_type_symbol
  _atom_site_label
  _atom_site_symmetry_multiplicity
  _atom_site_fract_x
  _atom_site_fract_y
  _atom_site_fract_z
  _atom_site_occupancy
  C   C1        1.0  0.00509  0.09407  0.89770  1.0000
  C   C2        1.0  0.02321  0.04997  0.91506  1.0000
  C   C3        1.0  0.02021  0.04628  0.96619  1.0000
  C   C4        1.0  0.97256  0.04973  0.98588  1.0000
  N   N1        1.0  0.93864  0.02093  0.96557  1.0000
  C   C5        1.0  0.94442  0.97336  0.97486  1.0000
  C   C6        1.0  0.90325  0.94611  0.96097  1.0000
  C   C7        1.0  0.86498  0.94929  0.99357  1.0000
  C   C8        1.0  0.83584  0.98581  0.99248  1.0000
  C   C9        1.0  0.80028  0.98912  0.02259  1.0000
  C   C10       1.0  0.77022  0.02904  0.02168  1.0000
  C   C11       1.0  0.79452  0.95577  0.05466  1.0000
  C   C12       1.0  0.82339  0.91935  0.05613  1.0000
  C   C13       1.0  0.85844  0.91609  0.02575  1.0000
  C   C14       1.0  0.05441  0.07505  0.99245  1.0000
  C   C15       1.0  0.08456  0.03351  0.99235  1.0000
  C   C16       1.0  0.10655  0.02209  0.03679  1.0000
  C   C17       1.0  0.13171  0.97762  0.03522  1.0000
  C   C18       1.0  0.17492  0.98107  0.01017  1.0000
  C   C19       1.0  0.21760  0.99341  0.03393  1.0000
  N   N2        1.0  0.21167  0.94924  0.01443  1.0000
  C   C20       1.0  0.20582  0.91372  0.04703  1.0000
  N   N3        1.0  0.04482  0.00593  0.98241  1.0000
  H   H1        1.0  0.00969  0.09607  0.86155  1.0000
  H   H2        1.0  0.02225  0.12247  0.91282  1.0000
  H   H3        1.0  0.96944  0.09758  0.90448  1.0000
  H   H4        1.0  0.05791  0.04690  0.90390  1.0000
  H   H5        1.0  0.00509  0.02249  0.89915  1.0000
  H   H6        1.0  0.96094  0.08419  0.98210  1.0000
  H   H7        1.0  0.97307  0.04393  0.02203  1.0000
  H   H8        1.0  0.93716  0.02608  0.93206  1.0000
  H   H9        1.0  0.97284  0.96081  0.95570  1.0000
  H   H10       1.0  0.95131  0.96782  0.01033  1.0000
  H   H11       1.0  0.91310  0.91100  0.95787  1.0000
  H   H12       1.0  0.89182  0.95589  0.92763  1.0000
  H   H13       1.0  0.84118  0.01211  0.96804  1.0000
  H   H14       1.0  0.73735  0.02100  0.03538  1.0000
  H   H15       1.0  0.76512  0.04063  0.98745  1.0000
  H   H16       1.0  0.78482  0.05611  0.04130  1.0000
  H   H17       1.0  0.76754  0.95799  0.07876  1.0000
  H   H18       1.0  0.81864  0.89353  0.08109  1.0000
  H   H19       1.0  0.88068  0.88754  0.02746  1.0000
  H   H20       1.0  0.04327  0.08553  0.02568  1.0000
  H   H21       1.0  0.06811  0.10419  0.97534  1.0000
  H   H22       1.0  0.10847  0.03424  0.96469  1.0000
  H   H23       1.0  0.12958  0.04890  0.04618  1.0000
  H   H24       1.0  0.08128  0.02030  0.06320  1.0000
  H   H25       1.0  0.13770  0.96744  0.06980  1.0000
  H   H26       1.0  0.11104  0.95167  0.01995  1.0000
  H   H27       1.0  0.17027  0.99287  0.97633  1.0000
  H   H28       1.0  0.24070  0.01518  0.01670  1.0000
  H   H29       1.0  0.21748  0.99678  0.06986  1.0000
  H   H30       1.0  0.17983  0.89062  0.03598  1.0000
  H   H31       1.0  0.19767  0.92500  0.08080  1.0000
  H   H32       1.0  0.23690  0.89470  0.04944  1.0000
  H   H33       1.0  0.03063  0.99191  0.00997  1.0000
