data_image0
_chemical_formula_structural       C4OCNCOC3OC4NC7OH28
_chemical_formula_sum              "C20 O4 N2 H28"
_cell_length_a       30
_cell_length_b       30
_cell_length_c       30
_cell_angle_alpha    90
_cell_angle_beta     90
_cell_angle_gamma    90

_space_group_name_H-M_alt    "P 1"
_space_group_IT_number       1

loop_
  _space_group_symop_operation_xyz
  'x, y, z'

loop_
  _atom_site_type_symbol
  _atom_site_label
  _atom_site_symmetry_multiplicity
  _atom_site_fract_x
  _atom_site_fract_y
  _atom_site_fract_z
  _atom_site_occupancy
  C   C1        1.0  0.08725  0.95523  0.07448  1.0000
  C   C2        1.0  0.09364  0.94344  0.02553  1.0000
  C   C3        1.0  0.10294  0.98409  0.99527  1.0000
  C   C4        1.0  0.11363  0.96909  0.94713  1.0000
  O   O1        1.0  0.13224  0.00637  0.92354  1.0000
  C   C5        1.0  0.07407  0.94973  0.92091  1.0000
  N   N1        1.0  0.04283  0.98307  0.90537  1.0000
  C   C6        1.0  0.01475  0.00868  0.93070  1.0000
  O   O2        1.0  0.98591  0.02992  0.91071  1.0000
  C   C7        1.0  0.02012  0.00693  0.98130  1.0000
  C   C8        1.0  0.98309  0.03092  0.00602  1.0000
  C   C9        1.0  0.95281  0.01054  0.03438  1.0000
  O   O3        1.0  0.94888  0.96805  0.04687  1.0000
  C   C10       1.0  0.91391  0.94189  0.02659  1.0000
  C   C11       1.0  0.92402  0.89371  0.04085  1.0000
  C   C12       1.0  0.86795  0.95490  0.04494  1.0000
  C   C13       1.0  0.91425  0.94392  0.97541  1.0000
  N   N2        1.0  0.92722  0.04311  0.05343  1.0000
  C   C14       1.0  0.93754  0.08410  0.03595  1.0000
  C   C15       1.0  0.91894  0.12601  0.04474  1.0000
  C   C16       1.0  0.93649  0.16264  0.02197  1.0000
  C   C17       1.0  0.97131  0.15743  0.99176  1.0000
  C   C18       1.0  0.98956  0.11527  0.98355  1.0000
  C   C19       1.0  0.97250  0.07763  0.00595  1.0000
  C   C20       1.0  0.06694  0.02123  0.99749  1.0000
  O   O4        1.0  0.08273  0.06027  0.97482  1.0000
  H   H1        1.0  0.08566  0.92479  0.09454  1.0000
  H   H2        1.0  0.11497  0.97547  0.08686  1.0000
  H   H3        1.0  0.05613  0.97346  0.07989  1.0000
  H   H4        1.0  0.06454  0.92460  0.01422  1.0000
  H   H5        1.0  0.12205  0.92051  0.02318  1.0000
  H   H6        1.0  0.13375  0.99969  0.00771  1.0000
  H   H7        1.0  0.13988  0.94367  0.94861  1.0000
  H   H8        1.0  0.13427  0.99833  0.89214  1.0000
  H   H9        1.0  0.08685  0.93377  0.89063  1.0000
  H   H10       1.0  0.05599  0.92438  0.93985  1.0000
  H   H11       1.0  0.03539  0.98472  0.87244  1.0000
  H   H12       1.0  0.01545  0.97172  0.98995  1.0000
  H   H13       1.0  0.92438  0.89074  0.07727  1.0000
  H   H14       1.0  0.89948  0.87016  0.02761  1.0000
  H   H15       1.0  0.95717  0.88351  0.02933  1.0000
  H   H16       1.0  0.85752  0.98769  0.03279  1.0000
  H   H17       1.0  0.84229  0.93095  0.03487  1.0000
  H   H18       1.0  0.86849  0.95667  0.08141  1.0000
  H   H19       1.0  0.88959  0.92111  0.96109  1.0000
  H   H20       1.0  0.94706  0.93495  0.96217  1.0000
  H   H21       1.0  0.90657  0.97746  0.96320  1.0000
  H   H22       1.0  0.90379  0.03764  0.07689  1.0000
  H   H23       1.0  0.89184  0.13013  0.06831  1.0000
  H   H24       1.0  0.92278  0.19565  0.02792  1.0000
  H   H25       1.0  0.98458  0.18622  0.97423  1.0000
  H   H26       1.0  0.01656  0.11171  0.95970  1.0000
  H   H27       1.0  0.06438  0.03160  0.03243  1.0000
  H   H28       1.0  0.10307  0.05057  0.95111  1.0000
