data_image0
_chemical_formula_structural       C8NCOCOCOC2OC6H15
_chemical_formula_sum              "C19 N1 O4 H15"
_cell_length_a       30
_cell_length_b       30
_cell_length_c       30
_cell_angle_alpha    90
_cell_angle_beta     90
_cell_angle_gamma    90

_space_group_name_H-M_alt    "P 1"
_space_group_IT_number       1

loop_
  _space_group_symop_operation_xyz
  'x, y, z'

loop_
  _atom_site_type_symbol
  _atom_site_label
  _atom_site_symmetry_multiplicity
  _atom_site_fract_x
  _atom_site_fract_y
  _atom_site_fract_z
  _atom_site_occupancy
  C   C1        1.0  0.19833  0.04707  0.99828  1.0000
  C   C2        1.0  0.15322  0.07002  0.99552  1.0000
  C   C3        1.0  0.11538  0.03786  0.00354  1.0000
  C   C4        1.0  0.09647  0.01421  0.96740  1.0000
  C   C5        1.0  0.06172  0.98379  0.97387  1.0000
  C   C6        1.0  0.04635  0.97734  0.01685  1.0000
  C   C7        1.0  0.06521  0.00048  0.05241  1.0000
  C   C8        1.0  0.09945  0.03066  0.04694  1.0000
  N   N1        1.0  0.04428  0.98876  0.09187  1.0000
  C   C9        1.0  0.01026  0.95809  0.08445  1.0000
  O   O1        1.0  0.98480  0.94417  0.11296  1.0000
  C   C10       1.0  0.01020  0.94687  0.03380  1.0000
  O   O2        1.0  0.96938  0.95809  0.01286  1.0000
  C   C11       1.0  0.93794  0.92549  0.01488  1.0000
  O   O3        1.0  0.94454  0.88807  0.02982  1.0000
  C   C12       1.0  0.89559  0.93933  0.99629  1.0000
  C   C13       1.0  0.85848  0.91208  0.99451  1.0000
  O   O4        1.0  0.82347  0.93325  0.97535  1.0000
  C   C14       1.0  0.83762  0.97492  0.96452  1.0000
  C   C15       1.0  0.81156  0.00749  0.94409  1.0000
  C   C16       1.0  0.83213  0.04842  0.93561  1.0000
  C   C17       1.0  0.87659  0.05577  0.94723  1.0000
  C   C18       1.0  0.90197  0.02229  0.96776  1.0000
  C   C19       1.0  0.88202  0.98068  0.97669  1.0000
  H   H1        1.0  0.22511  0.07113  0.99236  1.0000
  H   H2        1.0  0.20125  0.02054  0.97337  1.0000
  H   H3        1.0  0.20361  0.03215  0.03119  1.0000
  H   H4        1.0  0.15164  0.09719  0.01994  1.0000
  H   H5        1.0  0.14928  0.08568  0.96272  1.0000
  H   H6        1.0  0.10906  0.01960  0.93377  1.0000
  H   H7        1.0  0.04740  0.96588  0.94588  1.0000
  H   H8        1.0  0.11359  0.04824  0.07519  1.0000
  H   H9        1.0  0.05075  0.00173  0.12222  1.0000
  H   H10       1.0  0.02053  0.91216  0.02875  1.0000
  H   H11       1.0  0.85226  0.87817  0.00514  1.0000
  H   H12       1.0  0.77710  0.00117  0.93536  1.0000
  H   H13       1.0  0.81314  0.07493  0.91975  1.0000
  H   H14       1.0  0.89183  0.08795  0.94032  1.0000
  H   H15       1.0  0.93649  0.02882  0.97655  1.0000
