data_image0
_chemical_formula_structural       C6OC8FCH23
_chemical_formula_sum              "C15 O1 F1 H23"
_cell_length_a       30
_cell_length_b       30
_cell_length_c       30
_cell_angle_alpha    90
_cell_angle_beta     90
_cell_angle_gamma    90

_space_group_name_H-M_alt    "P 1"
_space_group_IT_number       1

loop_
  _space_group_symop_operation_xyz
  'x, y, z'

loop_
  _atom_site_type_symbol
  _atom_site_label
  _atom_site_symmetry_multiplicity
  _atom_site_fract_x
  _atom_site_fract_y
  _atom_site_fract_z
  _atom_site_occupancy
  C   C1        1.0  0.11175  0.07178  0.00916  1.0000
  C   C2        1.0  0.11933  0.02331  0.02214  1.0000
  C   C3        1.0  0.10847  0.99037  0.98462  1.0000
  C   C4        1.0  0.05851  0.98591  0.97379  1.0000
  C   C5        1.0  0.03421  0.94603  0.99582  1.0000
  C   C6        1.0  0.03588  0.94807  0.04669  1.0000
  O   O1        1.0  0.05751  0.90582  0.98360  1.0000
  C   C7        1.0  0.98558  0.94057  0.97852  1.0000
  C   C8        1.0  0.95315  0.97845  0.98669  1.0000
  C   C9        1.0  0.92303  0.97962  0.02285  1.0000
  C   C10       1.0  0.91996  0.94309  0.05715  1.0000
  C   C11       1.0  0.89487  0.01690  0.02825  1.0000
  C   C12       1.0  0.89490  0.05218  0.99774  1.0000
  C   C13       1.0  0.86544  0.09194  0.00418  1.0000
  C   C14       1.0  0.92419  0.05018  0.96189  1.0000
  F   F1        1.0  0.92547  0.08355  0.93218  1.0000
  C   C15       1.0  0.95265  0.01402  0.95611  1.0000
  H   H1        1.0  0.13068  0.08042  0.97919  1.0000
  H   H2        1.0  0.07653  0.07878  0.00293  1.0000
  H   H3        1.0  0.12277  0.09377  0.03612  1.0000
  H   H4        1.0  0.10009  0.01573  0.05217  1.0000
  H   H5        1.0  0.15458  0.01933  0.03099  1.0000
  H   H6        1.0  0.12586  0.00153  0.95442  1.0000
  H   H7        1.0  0.12275  0.95780  0.99292  1.0000
  H   H8        1.0  0.04129  0.01705  0.98165  1.0000
  H   H9        1.0  0.05617  0.98147  0.93751  1.0000
  H   H10       1.0  0.02168  0.97908  0.05960  1.0000
  H   H11       1.0  0.01789  0.91985  0.06130  1.0000
  H   H12       1.0  0.07012  0.94492  0.05899  1.0000
  H   H13       1.0  0.05963  0.90487  0.95126  1.0000
  H   H14       1.0  0.98680  0.93445  0.94236  1.0000
  H   H15       1.0  0.97185  0.90921  0.99132  1.0000
  H   H16       1.0  0.92146  0.91008  0.04180  1.0000
  H   H17       1.0  0.94659  0.94654  0.08176  1.0000
  H   H18       1.0  0.88810  0.94453  0.07497  1.0000
  H   H19       1.0  0.87232  0.01824  0.05669  1.0000
  H   H20       1.0  0.83715  0.08403  0.02585  1.0000
  H   H21       1.0  0.88437  0.11921  0.01930  1.0000
  H   H22       1.0  0.85176  0.10319  0.97226  1.0000
  H   H23       1.0  0.97464  0.01415  0.92732  1.0000
