data_image0
_chemical_formula_structural       C4SO2NC4NC4OC2OC2OC3SNCSH27
_chemical_formula_sum              "C20 S3 O5 N3 H27"
_cell_length_a       30
_cell_length_b       30
_cell_length_c       30
_cell_angle_alpha    90
_cell_angle_beta     90
_cell_angle_gamma    90

_space_group_name_H-M_alt    "P 1"
_space_group_IT_number       1

loop_
  _space_group_symop_operation_xyz
  'x, y, z'

loop_
  _atom_site_type_symbol
  _atom_site_label
  _atom_site_symmetry_multiplicity
  _atom_site_fract_x
  _atom_site_fract_y
  _atom_site_fract_z
  _atom_site_occupancy
  C   C1        1.0  0.23633  0.84185  0.96746  1.0000
  C   C2        1.0  0.20485  0.86419  0.00032  1.0000
  C   C3        1.0  0.17456  0.89788  0.97701  1.0000
  C   C4        1.0  0.13865  0.91733  0.00743  1.0000
  S   S1        1.0  0.16019  0.95621  0.04746  1.0000
  O   O1        1.0  0.18349  0.93220  0.08210  1.0000
  O   O2        1.0  0.18273  0.99123  0.02293  1.0000
  N   N1        1.0  0.11112  0.97788  0.06846  1.0000
  C   C5        1.0  0.09679  0.01911  0.04454  1.0000
  C   C6        1.0  0.06264  0.04468  0.07169  1.0000
  C   C7        1.0  0.02529  0.01388  0.08615  1.0000
  C   C8        1.0  0.99389  0.00208  0.04827  1.0000
  N   N2        1.0  0.96321  0.02991  0.03353  1.0000
  C   C9        1.0  0.93866  0.01089  0.99920  1.0000
  C   C10       1.0  0.90239  0.03545  0.97775  1.0000
  C   C11       1.0  0.90124  0.08216  0.98152  1.0000
  C   C12       1.0  0.86727  0.10700  0.96161  1.0000
  O   O3        1.0  0.86359  0.15250  0.96345  1.0000
  C   C13       1.0  0.89944  0.17656  0.98290  1.0000
  C   C14       1.0  0.83369  0.08444  0.93814  1.0000
  O   O4        1.0  0.80089  0.10868  0.91700  1.0000
  C   C15       1.0  0.76375  0.11432  0.94613  1.0000
  C   C16       1.0  0.83430  0.03786  0.93355  1.0000
  O   O5        1.0  0.80000  0.01951  0.90956  1.0000
  C   C17       1.0  0.80282  0.97348  0.89886  1.0000
  C   C18       1.0  0.86856  0.01364  0.95382  1.0000
  C   C19       1.0  0.95215  0.96846  0.98754  1.0000
  S   S2        1.0  0.99544  0.95167  0.02071  1.0000
  N   N3        1.0  0.04297  0.97519  0.10875  1.0000
  C   C20       1.0  0.08265  0.95497  0.09895  1.0000
  S   S3        1.0  0.09065  0.90595  0.12407  1.0000
  H   H1        1.0  0.25757  0.86645  0.95089  1.0000
  H   H2        1.0  0.21779  0.82361  0.94188  1.0000
  H   H3        1.0  0.25793  0.81810  0.98478  1.0000
  H   H4        1.0  0.18470  0.83858  0.01686  1.0000
  H   H5        1.0  0.22482  0.88063  0.02601  1.0000
  H   H6        1.0  0.19480  0.92462  0.96248  1.0000
  H   H7        1.0  0.15772  0.88113  0.94922  1.0000
  H   H8        1.0  0.11479  0.93585  0.98694  1.0000
  H   H9        1.0  0.12095  0.89089  0.02514  1.0000
  H   H10       1.0  0.08341  0.01003  0.01182  1.0000
  H   H11       1.0  0.12499  0.04165  0.03936  1.0000
  H   H12       1.0  0.07911  0.05831  0.10143  1.0000
  H   H13       1.0  0.05001  0.07311  0.05251  1.0000
  H   H14       1.0  0.00513  0.03133  0.11121  1.0000
  H   H15       1.0  0.92749  0.09850  0.00033  1.0000
  H   H16       1.0  0.90251  0.16907  0.01848  1.0000
  H   H17       1.0  0.89199  0.21212  0.97965  1.0000
  H   H18       1.0  0.93076  0.17013  0.96529  1.0000
  H   H19       1.0  0.77316  0.13248  0.97638  1.0000
  H   H20       1.0  0.74867  0.08222  0.95489  1.0000
  H   H21       1.0  0.73868  0.13411  0.92849  1.0000
  H   H22       1.0  0.79994  0.95289  0.92884  1.0000
  H   H23       1.0  0.77465  0.96537  0.87713  1.0000
  H   H24       1.0  0.83351  0.96591  0.88057  1.0000
  H   H25       1.0  0.86883  0.97757  0.95163  1.0000
  H   H26       1.0  0.93951  0.94666  0.96181  1.0000
  H   H27       1.0  0.02240  0.95751  0.12887  1.0000
