data_image0
_chemical_formula_structural       C9ONC4OC2H29
_chemical_formula_sum              "C15 O2 N1 H29"
_cell_length_a       30
_cell_length_b       30
_cell_length_c       30
_cell_angle_alpha    90
_cell_angle_beta     90
_cell_angle_gamma    90

_space_group_name_H-M_alt    "P 1"
_space_group_IT_number       1

loop_
  _space_group_symop_operation_xyz
  'x, y, z'

loop_
  _atom_site_type_symbol
  _atom_site_label
  _atom_site_symmetry_multiplicity
  _atom_site_fract_x
  _atom_site_fract_y
  _atom_site_fract_z
  _atom_site_occupancy
  C   C1        1.0  0.22399  0.99820  0.06241  1.0000
  C   C2        1.0  0.19874  0.99987  0.01847  1.0000
  C   C3        1.0  0.15239  0.02020  0.02434  1.0000
  C   C4        1.0  0.12677  0.02093  0.98028  1.0000
  C   C5        1.0  0.08087  0.04212  0.98649  1.0000
  C   C6        1.0  0.04486  0.01478  0.01102  1.0000
  C   C7        1.0  0.01957  0.00696  0.96631  1.0000
  C   C8        1.0  0.02668  0.96026  0.94690  1.0000
  C   C9        1.0  0.96836  0.01942  0.96510  1.0000
  O   O1        1.0  0.94971  0.03745  0.93327  1.0000
  N   N1        1.0  0.94512  0.00722  0.00291  1.0000
  C   C10       1.0  0.89749  0.01425  0.00788  1.0000
  C   C11       1.0  0.87048  0.97138  0.00018  1.0000
  C   C12       1.0  0.87494  0.95419  0.95240  1.0000
  C   C13       1.0  0.82112  0.97929  0.01100  1.0000
  O   O2        1.0  0.81685  0.99219  0.05663  1.0000
  C   C14       1.0  0.77157  0.99952  0.06849  1.0000
  C   C15       1.0  0.05085  0.04245  0.94476  1.0000
  H   H1        1.0  0.22859  0.03174  0.07617  1.0000
  H   H2        1.0  0.25695  0.98336  0.05744  1.0000
  H   H3        1.0  0.20609  0.97803  0.08708  1.0000
  H   H4        1.0  0.21792  0.01954  0.99434  1.0000
  H   H5        1.0  0.19587  0.96600  0.00500  1.0000
  H   H6        1.0  0.13371  0.00117  0.04932  1.0000
  H   H7        1.0  0.15545  0.05425  0.03730  1.0000
  H   H8        1.0  0.12391  0.98701  0.96716  1.0000
  H   H9        1.0  0.14566  0.04026  0.95568  1.0000
  H   H10       1.0  0.08454  0.07578  0.00049  1.0000
  H   H11       1.0  0.02659  0.03481  0.03555  1.0000
  H   H12       1.0  0.05649  0.98454  0.02782  1.0000
  H   H13       1.0  0.00869  0.93524  0.96655  1.0000
  H   H14       1.0  0.01429  0.95852  0.91256  1.0000
  H   H15       1.0  0.06183  0.95070  0.94646  1.0000
  H   H16       1.0  0.96123  0.99083  0.02754  1.0000
  H   H17       1.0  0.89283  0.02639  0.04198  1.0000
  H   H18       1.0  0.88641  0.04061  0.98520  1.0000
  H   H19       1.0  0.88331  0.94574  0.02292  1.0000
  H   H20       1.0  0.86439  0.97943  0.92825  1.0000
  H   H21       1.0  0.90937  0.94486  0.94482  1.0000
  H   H22       1.0  0.85433  0.92449  0.94732  1.0000
  H   H23       1.0  0.80205  0.94854  0.00552  1.0000
  H   H24       1.0  0.80738  0.00554  0.98951  1.0000
  H   H25       1.0  0.77057  0.01135  0.10298  1.0000
  H   H26       1.0  0.75268  0.96838  0.06623  1.0000
  H   H27       1.0  0.75656  0.02491  0.04700  1.0000
  H   H28       1.0  0.06698  0.03242  0.91358  1.0000
  H   H29       1.0  0.03495  0.07488  0.93908  1.0000
