data_image0
_chemical_formula_structural       C5OCOC4NCOCOCH19
_chemical_formula_sum              "C13 O4 N1 H19"
_cell_length_a       30
_cell_length_b       30
_cell_length_c       30
_cell_angle_alpha    90
_cell_angle_beta     90
_cell_angle_gamma    90

_space_group_name_H-M_alt    "P 1"
_space_group_IT_number       1

loop_
  _space_group_symop_operation_xyz
  'x, y, z'

loop_
  _atom_site_type_symbol
  _atom_site_label
  _atom_site_symmetry_multiplicity
  _atom_site_fract_x
  _atom_site_fract_y
  _atom_site_fract_z
  _atom_site_occupancy
  C   C1        1.0  0.87212  0.05237  0.95655  1.0000
  C   C2        1.0  0.87335  0.05649  0.00705  1.0000
  C   C3        1.0  0.88310  0.01244  0.03084  1.0000
  C   C4        1.0  0.92717  0.98939  0.01840  1.0000
  C   C5        1.0  0.96797  0.01830  0.02948  1.0000
  O   O1        1.0  0.00727  0.99586  0.01345  1.0000
  C   C6        1.0  0.04592  0.01767  0.02219  1.0000
  O   O2        1.0  0.04947  0.05378  0.04042  1.0000
  C   C7        1.0  0.08323  0.99002  0.00616  1.0000
  C   C8        1.0  0.08332  0.94390  0.01341  1.0000
  C   C9        1.0  0.11930  0.91856  0.99879  1.0000
  C   C10       1.0  0.15397  0.94028  0.97743  1.0000
  N   N1        1.0  0.15485  0.98467  0.96984  1.0000
  C   C11       1.0  0.11954  0.00895  0.98448  1.0000
  O   O3        1.0  0.11885  0.05404  0.97558  1.0000
  C   C12       1.0  0.15938  0.07054  0.95731  1.0000
  O   O4        1.0  0.93102  0.94890  0.04406  1.0000
  C   C13       1.0  0.91034  0.91166  0.02331  1.0000
  H   H1        1.0  0.90500  0.04433  0.94300  1.0000
  H   H2        1.0  0.84863  0.02648  0.94608  1.0000
  H   H3        1.0  0.86149  0.08395  0.94167  1.0000
  H   H4        1.0  0.84084  0.06870  0.01849  1.0000
  H   H5        1.0  0.89770  0.08193  0.01667  1.0000
  H   H6        1.0  0.85530  0.98954  0.02455  1.0000
  H   H7        1.0  0.88251  0.01820  0.06698  1.0000
  H   H8        1.0  0.92811  0.98089  0.98286  1.0000
  H   H9        1.0  0.97087  0.02268  0.06565  1.0000
  H   H10       1.0  0.96583  0.05077  0.01300  1.0000
  H   H11       1.0  0.05569  0.92786  0.03054  1.0000
  H   H12       1.0  0.12031  0.88280  0.00403  1.0000
  H   H13       1.0  0.18284  0.92201  0.96541  1.0000
  H   H14       1.0  0.15593  0.10665  0.95343  1.0000
  H   H15       1.0  0.16566  0.05641  0.92423  1.0000
  H   H16       1.0  0.18754  0.06446  0.97976  1.0000
  H   H17       1.0  0.92627  0.90451  0.99129  1.0000
  H   H18       1.0  0.87466  0.91729  0.01860  1.0000
  H   H19       1.0  0.91467  0.88270  0.04501  1.0000
