data_image0
_chemical_formula_structural       C6NC2NC5OCOC3OC4OC3H34
_chemical_formula_sum              "C24 N2 O4 H34"
_cell_length_a       30
_cell_length_b       30
_cell_length_c       30
_cell_angle_alpha    90
_cell_angle_beta     90
_cell_angle_gamma    90

_space_group_name_H-M_alt    "P 1"
_space_group_IT_number       1

loop_
  _space_group_symop_operation_xyz
  'x, y, z'

loop_
  _atom_site_type_symbol
  _atom_site_label
  _atom_site_symmetry_multiplicity
  _atom_site_fract_x
  _atom_site_fract_y
  _atom_site_fract_z
  _atom_site_occupancy
  C   C1        1.0  0.76449  0.99428  0.00911  1.0000
  C   C2        1.0  0.78873  0.98104  0.96653  1.0000
  C   C3        1.0  0.82042  0.01697  0.94911  1.0000
  C   C4        1.0  0.86042  0.02409  0.97969  1.0000
  C   C5        1.0  0.89615  0.05705  0.96156  1.0000
  C   C6        1.0  0.93090  0.03032  0.98867  1.0000
  N   N1        1.0  0.97189  0.02449  0.96269  1.0000
  C   C7        1.0  0.00340  0.06081  0.97196  1.0000
  C   C8        1.0  0.02634  0.05968  0.01816  1.0000
  N   N2        1.0  0.04224  0.01551  0.03262  1.0000
  C   C9        1.0  0.07570  0.99350  0.00473  1.0000
  C   C10       1.0  0.12204  0.01343  0.00788  1.0000
  C   C11       1.0  0.13711  0.03589  0.04612  1.0000
  C   C12       1.0  0.18037  0.05274  0.04821  1.0000
  C   C13       1.0  0.20880  0.04672  0.01223  1.0000
  O   O1        1.0  0.25112  0.06349  0.01517  1.0000
  C   C14       1.0  0.19517  0.02400  0.97388  1.0000
  O   O2        1.0  0.22703  0.02035  0.94130  1.0000
  C   C15       1.0  0.21509  0.99595  0.90244  1.0000
  C   C16       1.0  0.15175  0.00735  0.97195  1.0000
  C   C17       1.0  0.01908  0.99408  0.06732  1.0000
  O   O3        1.0  0.98652  0.01182  0.08501  1.0000
  C   C18       1.0  0.03505  0.95110  0.08302  1.0000
  C   C19       1.0  0.07656  0.93559  0.09599  1.0000
  C   C20       1.0  0.07093  0.89062  0.10927  1.0000
  C   C21       1.0  0.02636  0.88145  0.10429  1.0000
  O   O4        1.0  0.00433  0.91778  0.08885  1.0000
  C   C22       1.0  0.89943  0.98863  0.98362  1.0000
  C   C23       1.0  0.89714  0.96107  0.02653  1.0000
  C   C24       1.0  0.90558  0.95781  0.94325  1.0000
  H   H1        1.0  0.73989  0.96877  0.01789  1.0000
  H   H2        1.0  0.78748  0.99750  0.03723  1.0000
  H   H3        1.0  0.74686  0.02594  0.00492  1.0000
  H   H4        1.0  0.76368  0.97439  0.94073  1.0000
  H   H5        1.0  0.80661  0.94973  0.97216  1.0000
  H   H6        1.0  0.80219  0.04844  0.94536  1.0000
  H   H7        1.0  0.83157  0.00751  0.91562  1.0000
  H   H8        1.0  0.84882  0.03552  0.01259  1.0000
  H   H9        1.0  0.89997  0.05638  0.92520  1.0000
  H   H10       1.0  0.89178  0.09177  0.97187  1.0000
  H   H11       1.0  0.93476  0.04210  0.02300  1.0000
  H   H12       1.0  0.96666  0.02290  0.92917  1.0000
  H   H13       1.0  0.98757  0.09340  0.96693  1.0000
  H   H14       1.0  0.02963  0.05874  0.94655  1.0000
  H   H15       1.0  0.05514  0.08213  0.01741  1.0000
  H   H16       1.0  0.00357  0.07360  0.04306  1.0000
  H   H17       1.0  0.07800  0.95791  0.01209  1.0000
  H   H18       1.0  0.06413  0.99535  0.97015  1.0000
  H   H19       1.0  0.11523  0.04072  0.07464  1.0000
  H   H20       1.0  0.19186  0.07033  0.07770  1.0000
  H   H21       1.0  0.26524  0.05562  0.98690  1.0000
  H   H22       1.0  0.20676  0.96136  0.91062  1.0000
  H   H23       1.0  0.18776  0.01228  0.88457  1.0000
  H   H24       1.0  0.24407  0.99543  0.88031  1.0000
  H   H25       1.0  0.14003  0.98936  0.94281  1.0000
  H   H26       1.0  0.10718  0.95456  0.09631  1.0000
  H   H27       1.0  0.09613  0.86791  0.12141  1.0000
  H   H28       1.0  0.00598  0.85233  0.11026  1.0000
  H   H29       1.0  0.89199  0.98215  0.05590  1.0000
  H   H30       1.0  0.86966  0.93708  0.02524  1.0000
  H   H31       1.0  0.92812  0.94242  0.03156  1.0000
  H   H32       1.0  0.90661  0.97630  0.91182  1.0000
  H   H33       1.0  0.87827  0.93369  0.94086  1.0000
  H   H34       1.0  0.93663  0.93877  0.94603  1.0000
