data_image0
_chemical_formula_structural       C5NC2OC2OCSO2C4OC2OC2H29
_chemical_formula_sum              "C18 N1 O6 S1 H29"
_cell_length_a       30
_cell_length_b       30
_cell_length_c       30
_cell_angle_alpha    90
_cell_angle_beta     90
_cell_angle_gamma    90

_space_group_name_H-M_alt    "P 1"
_space_group_IT_number       1

loop_
  _space_group_symop_operation_xyz
  'x, y, z'

loop_
  _atom_site_type_symbol
  _atom_site_label
  _atom_site_symmetry_multiplicity
  _atom_site_fract_x
  _atom_site_fract_y
  _atom_site_fract_z
  _atom_site_occupancy
  C   C1        1.0  0.25199  0.99481  0.94720  1.0000
  C   C2        1.0  0.21972  0.02372  0.97354  1.0000
  C   C3        1.0  0.18372  0.99715  0.99806  1.0000
  C   C4        1.0  0.15156  0.97307  0.96651  1.0000
  C   C5        1.0  0.11376  0.94898  0.99101  1.0000
  N   N1        1.0  0.08430  0.98060  0.01367  1.0000
  C   C6        1.0  0.04725  0.95776  0.03656  1.0000
  C   C7        1.0  0.00041  0.97603  0.02520  1.0000
  O   O1        1.0  0.00080  0.02369  0.01813  1.0000
  C   C8        1.0  0.00650  0.05027  0.05722  1.0000
  C   C9        1.0  0.97032  0.04386  0.09281  1.0000
  O   O2        1.0  0.92655  0.03895  0.07476  1.0000
  C   C10       1.0  0.90984  0.07855  0.05480  1.0000
  S   S1        1.0  0.97779  0.94471  0.97839  1.0000
  O   O3        1.0  0.96872  0.89937  0.99286  1.0000
  O   O4        1.0  0.00455  0.95264  0.93880  1.0000
  C   C11       1.0  0.92523  0.97081  0.96942  1.0000
  C   C12       1.0  0.92188  0.00593  0.93890  1.0000
  C   C13       1.0  0.88067  0.02629  0.93193  1.0000
  C   C14       1.0  0.84325  0.01147  0.95520  1.0000
  O   O5        1.0  0.80411  0.03378  0.94735  1.0000
  C   C15       1.0  0.77140  0.02377  0.98064  1.0000
  C   C16       1.0  0.76956  0.97393  0.98958  1.0000
  O   O6        1.0  0.81095  0.95856  0.00774  1.0000
  C   C17       1.0  0.84663  0.97537  0.98464  1.0000
  C   C18       1.0  0.88768  0.95502  0.99205  1.0000
  H   H1        1.0  0.27832  0.01555  0.93275  1.0000
  H   H2        1.0  0.26781  0.96993  0.96865  1.0000
  H   H3        1.0  0.23529  0.97756  0.91978  1.0000
  H   H4        1.0  0.20406  0.04795  0.95112  1.0000
  H   H5        1.0  0.23876  0.04287  0.99817  1.0000
  H   H6        1.0  0.16513  0.02046  0.01920  1.0000
  H   H7        1.0  0.19942  0.97288  0.02045  1.0000
  H   H8        1.0  0.16989  0.94816  0.94706  1.0000
  H   H9        1.0  0.13752  0.99689  0.94256  1.0000
  H   H10       1.0  0.09465  0.92970  0.96651  1.0000
  H   H11       1.0  0.12798  0.92546  0.01516  1.0000
  H   H12       1.0  0.07162  0.00236  0.99059  1.0000
  H   H13       1.0  0.05291  0.96351  0.07223  1.0000
  H   H14       1.0  0.04832  0.92149  0.03212  1.0000
  H   H15       1.0  0.97758  0.96767  0.05245  1.0000
  H   H16       1.0  0.03962  0.04486  0.07161  1.0000
  H   H17       1.0  0.00578  0.08495  0.04579  1.0000
  H   H18       1.0  0.97717  0.01327  0.11152  1.0000
  H   H19       1.0  0.97103  0.07119  0.11704  1.0000
  H   H20       1.0  0.92871  0.08699  0.02478  1.0000
  H   H21       1.0  0.91073  0.10625  0.07848  1.0000
  H   H22       1.0  0.87518  0.07268  0.04519  1.0000
  H   H23       1.0  0.95104  0.01760  0.92078  1.0000
  H   H24       1.0  0.87775  0.05388  0.90861  1.0000
  H   H25       1.0  0.77957  0.04251  0.01095  1.0000
  H   H26       1.0  0.73915  0.03559  0.96834  1.0000
  H   H27       1.0  0.74335  0.96647  0.01382  1.0000
  H   H28       1.0  0.76256  0.95507  0.95904  1.0000
  H   H29       1.0  0.88995  0.92716  0.01510  1.0000
