data_image0
_chemical_formula_structural       C5NC5NClCOC3NC3OH24
_chemical_formula_sum              "C17 N3 Cl1 O2 H24"
_cell_length_a       30
_cell_length_b       30
_cell_length_c       30
_cell_angle_alpha    90
_cell_angle_beta     90
_cell_angle_gamma    90

_space_group_name_H-M_alt    "P 1"
_space_group_IT_number       1

loop_
  _space_group_symop_operation_xyz
  'x, y, z'

loop_
  _atom_site_type_symbol
  _atom_site_label
  _atom_site_symmetry_multiplicity
  _atom_site_fract_x
  _atom_site_fract_y
  _atom_site_fract_z
  _atom_site_occupancy
  C   C1        1.0  0.80101  0.95879  0.06145  1.0000
  C   C2        1.0  0.85139  0.96239  0.06581  1.0000
  C   C3        1.0  0.87421  0.98159  0.02439  1.0000
  C   C4        1.0  0.86275  0.03060  0.01594  1.0000
  C   C5        1.0  0.88450  0.04974  0.97387  1.0000
  N   N1        1.0  0.93230  0.05355  0.97543  1.0000
  C   C6        1.0  0.95976  0.07606  0.00878  1.0000
  C   C7        1.0  0.99902  0.04535  0.99360  1.0000
  C   C8        1.0  0.01845  0.01834  0.03203  1.0000
  C   C9        1.0  0.03369  0.06973  0.96476  1.0000
  C   C10       1.0  0.06451  0.03833  0.93874  1.0000
  N   N2        1.0  0.09980  0.01736  0.96500  1.0000
  Cl  Cl1       1.0  0.13523  0.05381  0.99430  1.0000
  C   C11       1.0  0.11783  0.97731  0.94912  1.0000
  O   O1        1.0  0.10597  0.95924  0.91427  1.0000
  C   C12       1.0  0.15261  0.95449  0.97588  1.0000
  C   C13       1.0  0.18851  0.93505  0.95366  1.0000
  C   C14       1.0  0.22005  0.91301  0.97896  1.0000
  N   N3        1.0  0.21779  0.90906  0.02376  1.0000
  C   C15       1.0  0.18215  0.92743  0.04422  1.0000
  C   C16       1.0  0.14875  0.95011  0.02200  1.0000
  C   C17       1.0  0.96218  0.02068  0.96678  1.0000
  O   O2        1.0  0.95877  0.98602  0.94666  1.0000
  H   H1        1.0  0.78533  0.99165  0.05956  1.0000
  H   H2        1.0  0.79175  0.93981  0.03170  1.0000
  H   H3        1.0  0.78715  0.94165  0.09053  1.0000
  H   H4        1.0  0.85969  0.98259  0.09511  1.0000
  H   H5        1.0  0.86485  0.92895  0.07191  1.0000
  H   H6        1.0  0.91023  0.97816  0.02919  1.0000
  H   H7        1.0  0.86539  0.96154  0.99512  1.0000
  H   H8        1.0  0.87208  0.05056  0.04508  1.0000
  H   H9        1.0  0.82660  0.03405  0.01199  1.0000
  H   H10       1.0  0.87564  0.02922  0.94497  1.0000
  H   H11       1.0  0.87157  0.08338  0.96799  1.0000
  H   H12       1.0  0.96371  0.11167  0.00204  1.0000
  H   H13       1.0  0.94793  0.07139  0.04296  1.0000
  H   H14       1.0  0.04064  0.03881  0.05254  1.0000
  H   H15       1.0  0.03712  0.98946  0.01996  1.0000
  H   H16       1.0  0.99218  0.00536  0.05386  1.0000
  H   H17       1.0  0.05261  0.09315  0.98541  1.0000
  H   H18       1.0  0.01613  0.09028  0.94006  1.0000
  H   H19       1.0  0.04478  0.01236  0.92232  1.0000
  H   H20       1.0  0.08123  0.05709  0.91215  1.0000
  H   H21       1.0  0.19165  0.93693  0.91768  1.0000
  H   H22       1.0  0.24879  0.89732  0.96348  1.0000
  H   H23       1.0  0.18110  0.92307  0.08016  1.0000
  H   H24       1.0  0.12059  0.96351  0.04020  1.0000
