data_image0
_chemical_formula_structural       C7OC4OC3ONC5H31
_chemical_formula_sum              "C19 O3 N1 H31"
_cell_length_a       30
_cell_length_b       30
_cell_length_c       30
_cell_angle_alpha    90
_cell_angle_beta     90
_cell_angle_gamma    90

_space_group_name_H-M_alt    "P 1"
_space_group_IT_number       1

loop_
  _space_group_symop_operation_xyz
  'x, y, z'

loop_
  _atom_site_type_symbol
  _atom_site_label
  _atom_site_symmetry_multiplicity
  _atom_site_fract_x
  _atom_site_fract_y
  _atom_site_fract_z
  _atom_site_occupancy
  C   C1        1.0  0.17965  0.99076  0.05485  1.0000
  C   C2        1.0  0.18983  0.02851  0.02259  1.0000
  C   C3        1.0  0.17258  0.02015  0.97530  1.0000
  C   C4        1.0  0.12209  0.01352  0.97109  1.0000
  C   C5        1.0  0.09513  0.05362  0.98738  1.0000
  C   C6        1.0  0.04536  0.05211  0.97524  1.0000
  C   C7        1.0  0.01898  0.01473  0.99869  1.0000
  O   O1        1.0  0.03076  0.97296  0.97872  1.0000
  C   C8        1.0  0.00558  0.93905  0.99569  1.0000
  C   C9        1.0  0.02077  0.89574  0.98933  1.0000
  C   C10       1.0  0.99604  0.86008  0.00617  1.0000
  C   C11       1.0  0.95611  0.86750  0.02912  1.0000
  O   O2        1.0  0.93540  0.82966  0.04388  1.0000
  C   C12       1.0  0.89477  0.83531  0.06766  1.0000
  C   C13       1.0  0.94084  0.91106  0.03490  1.0000
  C   C14       1.0  0.96553  0.94668  0.01783  1.0000
  O   O3        1.0  0.94821  0.98878  0.02382  1.0000
  N   N1        1.0  0.97080  0.02345  0.99803  1.0000
  C   C15       1.0  0.95003  0.02546  0.95379  1.0000
  C   C16       1.0  0.90003  0.03653  0.95561  1.0000
  C   C17       1.0  0.89031  0.08168  0.97738  1.0000
  C   C18       1.0  0.84050  0.09239  0.97615  1.0000
  C   C19       1.0  0.83060  0.13717  0.99773  1.0000
  H   H1        1.0  0.19207  0.95891  0.04210  1.0000
  H   H2        1.0  0.19572  0.99710  0.08700  1.0000
  H   H3        1.0  0.14382  0.98762  0.06088  1.0000
  H   H4        1.0  0.17629  0.05977  0.03573  1.0000
  H   H5        1.0  0.22609  0.03290  0.02094  1.0000
  H   H6        1.0  0.18926  0.99058  0.96168  1.0000
  H   H7        1.0  0.18266  0.04823  0.95416  1.0000
  H   H8        1.0  0.11439  0.00732  0.93588  1.0000
  H   H9        1.0  0.11244  0.98347  0.98937  1.0000
  H   H10       1.0  0.10921  0.08402  0.97270  1.0000
  H   H11       1.0  0.09841  0.05701  0.02361  1.0000
  H   H12       1.0  0.04253  0.04882  0.93893  1.0000
  H   H13       1.0  0.03110  0.08451  0.98451  1.0000
  H   H14       1.0  0.02998  0.01428  0.03367  1.0000
  H   H15       1.0  0.05175  0.88969  0.97161  1.0000
  H   H16       1.0  0.00798  0.82618  0.00142  1.0000
  H   H17       1.0  0.86926  0.85073  0.04661  1.0000
  H   H18       1.0  0.90000  0.85449  0.09827  1.0000
  H   H19       1.0  0.88277  0.80222  0.07722  1.0000
  H   H20       1.0  0.90992  0.91837  0.05212  1.0000
  H   H21       1.0  0.95431  0.99410  0.93551  1.0000
  H   H22       1.0  0.96612  0.05147  0.93380  1.0000
  H   H23       1.0  0.88722  0.03678  0.92134  1.0000
  H   H24       1.0  0.88185  0.01013  0.97319  1.0000
  H   H25       1.0  0.90890  0.10790  0.95996  1.0000
  H   H26       1.0  0.90173  0.08158  0.01209  1.0000
  H   H27       1.0  0.82176  0.06629  0.99356  1.0000
  H   H28       1.0  0.82875  0.09292  0.94155  1.0000
  H   H29       1.0  0.84803  0.16416  0.98043  1.0000
  H   H30       1.0  0.84096  0.13740  0.03272  1.0000
  H   H31       1.0  0.79482  0.14416  0.99647  1.0000
