data_image0
_chemical_formula_structural       C4NC10OC4NC2OCOC2H24
_chemical_formula_sum              "C23 N2 O3 H24"
_cell_length_a       30
_cell_length_b       30
_cell_length_c       30
_cell_angle_alpha    90
_cell_angle_beta     90
_cell_angle_gamma    90

_space_group_name_H-M_alt    "P 1"
_space_group_IT_number       1

loop_
  _space_group_symop_operation_xyz
  'x, y, z'

loop_
  _atom_site_type_symbol
  _atom_site_label
  _atom_site_symmetry_multiplicity
  _atom_site_fract_x
  _atom_site_fract_y
  _atom_site_fract_z
  _atom_site_occupancy
  C   C1        1.0  0.92485  0.20088  0.97801  1.0000
  C   C2        1.0  0.93107  0.17298  0.93616  1.0000
  C   C3        1.0  0.96591  0.13611  0.94128  1.0000
  C   C4        1.0  0.95289  0.10065  0.97560  1.0000
  N   N1        1.0  0.98479  0.06378  0.97661  1.0000
  C   C5        1.0  0.97718  0.02686  0.94571  1.0000
  C   C6        1.0  0.94621  0.99425  0.96489  1.0000
  C   C7        1.0  0.92123  0.96744  0.98105  1.0000
  C   C8        1.0  0.89195  0.93542  0.00080  1.0000
  C   C9        1.0  0.86731  0.90655  0.97383  1.0000
  C   C10       1.0  0.83891  0.87515  0.99319  1.0000
  C   C11       1.0  0.83516  0.87266  0.03953  1.0000
  C   C12       1.0  0.85971  0.90153  0.06653  1.0000
  C   C13       1.0  0.88813  0.93291  0.04719  1.0000
  C   C14       1.0  0.02262  0.06835  0.00318  1.0000
  O   O1        1.0  0.03185  0.10239  0.02400  1.0000
  C   C15       1.0  0.05383  0.03047  0.00683  1.0000
  C   C16       1.0  0.09681  0.03473  0.98985  1.0000
  C   C17       1.0  0.12665  0.99897  0.99308  1.0000
  C   C18       1.0  0.11440  0.95883  0.01374  1.0000
  N   N2        1.0  0.14423  0.92221  0.01696  1.0000
  C   C19       1.0  0.13286  0.88105  0.03823  1.0000
  C   C20       1.0  0.17123  0.85098  0.02631  1.0000
  O   O2        1.0  0.20683  0.88030  0.01507  1.0000
  C   C21       1.0  0.18912  0.92144  0.00558  1.0000
  O   O3        1.0  0.21205  0.95121  0.99002  1.0000
  C   C22       1.0  0.07107  0.95577  0.03141  1.0000
  C   C23       1.0  0.04099  0.99130  0.02825  1.0000
  H   H1        1.0  0.95666  0.21456  0.98950  1.0000
  H   H2        1.0  0.91025  0.18130  0.00508  1.0000
  H   H3        1.0  0.90235  0.22880  0.97123  1.0000
  H   H4        1.0  0.89900  0.15848  0.92632  1.0000
  H   H5        1.0  0.94148  0.19503  0.90893  1.0000
  H   H6        1.0  0.99816  0.15084  0.95020  1.0000
  H   H7        1.0  0.97067  0.12029  0.90866  1.0000
  H   H8        1.0  0.91967  0.08722  0.96845  1.0000
  H   H9        1.0  0.95150  0.11552  0.00894  1.0000
  H   H10       1.0  0.96377  0.04038  0.91454  1.0000
  H   H11       1.0  0.00873  0.01069  0.93717  1.0000
  H   H12       1.0  0.86994  0.90836  0.93769  1.0000
  H   H13       1.0  0.81962  0.85273  0.97214  1.0000
  H   H14       1.0  0.81296  0.84828  0.05458  1.0000
  H   H15       1.0  0.85665  0.89970  0.10263  1.0000
  H   H16       1.0  0.90704  0.95541  0.06848  1.0000
  H   H17       1.0  0.10728  0.06566  0.97409  1.0000
  H   H18       1.0  0.15960  0.00381  0.97884  1.0000
  H   H19       1.0  0.10126  0.86731  0.02627  1.0000
  H   H20       1.0  0.13125  0.88653  0.07431  1.0000
  H   H21       1.0  0.18095  0.82939  0.05403  1.0000
  H   H22       1.0  0.16383  0.83017  0.99725  1.0000
  H   H23       1.0  0.05959  0.92595  0.04844  1.0000
  H   H24       1.0  0.00796  0.98839  0.04283  1.0000
