data_image0
_chemical_formula_structural       C7NCOC8FC3H28
_chemical_formula_sum              "C19 N1 O1 F1 H28"
_cell_length_a       30
_cell_length_b       30
_cell_length_c       30
_cell_angle_alpha    90
_cell_angle_beta     90
_cell_angle_gamma    90

_space_group_name_H-M_alt    "P 1"
_space_group_IT_number       1

loop_
  _space_group_symop_operation_xyz
  'x, y, z'

loop_
  _atom_site_type_symbol
  _atom_site_label
  _atom_site_symmetry_multiplicity
  _atom_site_fract_x
  _atom_site_fract_y
  _atom_site_fract_z
  _atom_site_occupancy
  C   C1        1.0  0.19079  0.08997  0.98697  1.0000
  C   C2        1.0  0.17104  0.04832  0.96591  1.0000
  C   C3        1.0  0.14954  0.01810  0.00089  1.0000
  C   C4        1.0  0.12978  0.97617  0.97942  1.0000
  C   C5        1.0  0.10956  0.94401  0.01394  1.0000
  C   C6        1.0  0.09558  0.89978  0.99235  1.0000
  C   C7        1.0  0.04917  0.90922  0.97420  1.0000
  N   N1        1.0  0.03116  0.94278  0.00403  1.0000
  C   C8        1.0  0.98646  0.95340  0.00355  1.0000
  O   O1        1.0  0.96028  0.93561  0.97748  1.0000
  C   C9        1.0  0.97159  0.98823  0.03741  1.0000
  C   C10       1.0  0.92128  0.99842  0.03522  1.0000
  C   C11       1.0  0.90680  0.02189  0.07827  1.0000
  C   C12       1.0  0.91041  0.02732  0.99399  1.0000
  C   C13       1.0  0.86121  0.02926  0.98335  1.0000
  C   C14       1.0  0.83991  0.99207  0.96455  1.0000
  C   C15       1.0  0.79448  0.99346  0.95471  1.0000
  C   C16       1.0  0.77040  0.03200  0.96363  1.0000
  F   F1        1.0  0.72677  0.03336  0.95421  1.0000
  C   C17       1.0  0.79088  0.06919  0.98217  1.0000
  C   C18       1.0  0.83633  0.06787  0.99204  1.0000
  C   C19       1.0  0.06536  0.96066  0.03346  1.0000
  H   H1        1.0  0.21656  0.08135  0.01132  1.0000
  H   H2        1.0  0.16506  0.10950  0.00394  1.0000
  H   H3        1.0  0.20598  0.11107  0.96138  1.0000
  H   H4        1.0  0.14617  0.05812  0.94101  1.0000
  H   H5        1.0  0.19741  0.03015  0.94831  1.0000
  H   H6        1.0  0.12357  0.03675  0.01851  1.0000
  H   H7        1.0  0.17459  0.00845  0.02571  1.0000
  H   H8        1.0  0.10471  0.98588  0.95465  1.0000
  H   H9        1.0  0.15635  0.95879  0.96125  1.0000
  H   H10       1.0  0.13407  0.93816  0.04039  1.0000
  H   H11       1.0  0.11852  0.88793  0.96660  1.0000
  H   H12       1.0  0.09349  0.87396  0.01818  1.0000
  H   H13       1.0  0.02801  0.87952  0.97359  1.0000
  H   H14       1.0  0.05043  0.92349  0.94061  1.0000
  H   H15       1.0  0.99058  0.01897  0.03207  1.0000
  H   H16       1.0  0.97991  0.97516  0.07052  1.0000
  H   H17       1.0  0.90300  0.96678  0.03330  1.0000
  H   H18       1.0  0.87079  0.02772  0.07875  1.0000
  H   H19       1.0  0.91483  0.00147  0.10746  1.0000
  H   H20       1.0  0.92360  0.05407  0.08210  1.0000
  H   H21       1.0  0.92747  0.01456  0.96427  1.0000
  H   H22       1.0  0.92345  0.06119  0.99873  1.0000
  H   H23       1.0  0.85883  0.96189  0.95750  1.0000
  H   H24       1.0  0.77786  0.96482  0.94019  1.0000
  H   H25       1.0  0.77137  0.09890  0.98881  1.0000
  H   H26       1.0  0.85216  0.09705  0.00658  1.0000
  H   H27       1.0  0.05966  0.94633  0.06658  1.0000
  H   H28       1.0  0.06279  0.99688  0.03591  1.0000
