data_image0
_chemical_formula_structural       C5ONC6OC13OCH29
_chemical_formula_sum              "C25 O3 N1 H29"
_cell_length_a       30
_cell_length_b       30
_cell_length_c       30
_cell_angle_alpha    90
_cell_angle_beta     90
_cell_angle_gamma    90

_space_group_name_H-M_alt    "P 1"
_space_group_IT_number       1

loop_
  _space_group_symop_operation_xyz
  'x, y, z'

loop_
  _atom_site_type_symbol
  _atom_site_label
  _atom_site_symmetry_multiplicity
  _atom_site_fract_x
  _atom_site_fract_y
  _atom_site_fract_z
  _atom_site_occupancy
  C   C1        1.0  0.17472  0.90337  0.03304  1.0000
  C   C2        1.0  0.14096  0.93563  0.01330  1.0000
  C   C3        1.0  0.10230  0.91080  0.99108  1.0000
  C   C4        1.0  0.06810  0.94251  0.97035  1.0000
  C   C5        1.0  0.03823  0.96548  0.00446  1.0000
  O   O1        1.0  0.04076  0.95606  0.04436  1.0000
  N   N1        1.0  0.00835  0.99719  0.98824  1.0000
  C   C6        1.0  0.99765  0.00262  0.94092  1.0000
  C   C7        1.0  0.96099  0.97020  0.92602  1.0000
  C   C8        1.0  0.92350  0.96559  0.95935  1.0000
  C   C9        1.0  0.90538  0.92739  0.97464  1.0000
  C   C10       1.0  0.91633  0.88272  0.96005  1.0000
  C   C11       1.0  0.90213  0.84461  0.97851  1.0000
  O   O2        1.0  0.87632  0.83989  0.01571  1.0000
  C   C12       1.0  0.90690  0.00806  0.97815  1.0000
  C   C13       1.0  0.86318  0.02099  0.96697  1.0000
  C   C14       1.0  0.84468  0.05993  0.98411  1.0000
  C   C15       1.0  0.86951  0.08619  0.01296  1.0000
  C   C16       1.0  0.91296  0.07377  0.02425  1.0000
  C   C17       1.0  0.93323  0.03517  0.00641  1.0000
  C   C18       1.0  0.98069  0.02144  0.02128  1.0000
  C   C19       1.0  0.00908  0.05848  0.04294  1.0000
  C   C20       1.0  0.02285  0.05247  0.08754  1.0000
  C   C21       1.0  0.04885  0.08423  0.10926  1.0000
  C   C22       1.0  0.06177  0.12257  0.08678  1.0000
  C   C23       1.0  0.04877  0.12915  0.04258  1.0000
  C   C24       1.0  0.02251  0.09750  0.02037  1.0000
  O   O3        1.0  0.00849  0.10206  0.97720  1.0000
  C   C25       1.0  0.01670  0.14335  0.95549  1.0000
  H   H1        1.0  0.18881  0.88176  0.00723  1.0000
  H   H2        1.0  0.15929  0.88228  0.05850  1.0000
  H   H3        1.0  0.20212  0.92174  0.04862  1.0000
  H   H4        1.0  0.12861  0.95751  0.03979  1.0000
  H   H5        1.0  0.15772  0.95689  0.98876  1.0000
  H   H6        1.0  0.08611  0.88866  0.01524  1.0000
  H   H7        1.0  0.11578  0.88950  0.96458  1.0000
  H   H8        1.0  0.08558  0.96777  0.95063  1.0000
  H   H9        1.0  0.04671  0.92294  0.94818  1.0000
  H   H10       1.0  0.98750  0.03702  0.93443  1.0000
  H   H11       1.0  0.02731  0.99722  0.92042  1.0000
  H   H12       1.0  0.94749  0.98138  0.89393  1.0000
  H   H13       1.0  0.97661  0.93787  0.91969  1.0000
  H   H14       1.0  0.87936  0.92996  0.99981  1.0000
  H   H15       1.0  0.93724  0.87947  0.93064  1.0000
  H   H16       1.0  0.91061  0.81215  0.96501  1.0000
  H   H17       1.0  0.87340  0.86864  0.03030  1.0000
  H   H18       1.0  0.84321  0.00043  0.94472  1.0000
  H   H19       1.0  0.81088  0.06946  0.97526  1.0000
  H   H20       1.0  0.85516  0.11635  0.02702  1.0000
  H   H21       1.0  0.93082  0.09502  0.04759  1.0000
  H   H22       1.0  0.97341  0.99724  0.04786  1.0000
  H   H23       1.0  0.01379  0.02220  0.10544  1.0000
  H   H24       1.0  0.05928  0.07872  0.14352  1.0000
  H   H25       1.0  0.08226  0.14732  0.10351  1.0000
  H   H26       1.0  0.05997  0.15941  0.02626  1.0000
  H   H27       1.0  0.05245  0.14862  0.95047  1.0000
  H   H28       1.0  0.00160  0.17115  0.97370  1.0000
  H   H29       1.0  0.00103  0.14189  0.92258  1.0000
