data_image0
_chemical_formula_structural       C4NCOCNC12H28
_chemical_formula_sum              "C18 N2 O1 H28"
_cell_length_a       30
_cell_length_b       30
_cell_length_c       30
_cell_angle_alpha    90
_cell_angle_beta     90
_cell_angle_gamma    90

_space_group_name_H-M_alt    "P 1"
_space_group_IT_number       1

loop_
  _space_group_symop_operation_xyz
  'x, y, z'

loop_
  _atom_site_type_symbol
  _atom_site_label
  _atom_site_symmetry_multiplicity
  _atom_site_fract_x
  _atom_site_fract_y
  _atom_site_fract_z
  _atom_site_occupancy
  C   C1        1.0  0.00671  0.13585  0.06177  1.0000
  C   C2        1.0  0.02603  0.09630  0.03661  1.0000
  C   C3        1.0  0.01436  0.09830  0.98705  1.0000
  C   C4        1.0  0.03201  0.05839  0.96044  1.0000
  N   N1        1.0  0.00889  0.01630  0.97016  1.0000
  C   C5        1.0  0.02991  0.97983  0.99013  1.0000
  O   O1        1.0  0.01352  0.94209  0.99065  1.0000
  C   C6        1.0  0.07628  0.98711  0.01117  1.0000
  N   N2        1.0  0.08373  0.95399  0.04668  1.0000
  C   C7        1.0  0.13098  0.94819  0.05623  1.0000
  C   C8        1.0  0.13692  0.91404  0.09322  1.0000
  C   C9        1.0  0.96475  0.01036  0.94856  1.0000
  C   C10       1.0  0.96831  0.98722  0.90273  1.0000
  C   C11       1.0  0.95632  0.93792  0.90343  1.0000
  C   C12       1.0  0.91012  0.93068  0.92321  1.0000
  C   C13       1.0  0.90324  0.95428  0.96701  1.0000
  C   C14       1.0  0.86933  0.93919  0.99556  1.0000
  C   C15       1.0  0.86089  0.96063  0.03590  1.0000
  C   C16       1.0  0.88600  0.99764  0.04803  1.0000
  C   C17       1.0  0.91946  0.01321  0.01976  1.0000
  C   C18       1.0  0.92864  0.99188  0.97902  1.0000
  H   H1        1.0  0.01569  0.13395  0.09708  1.0000
  H   H2        1.0  0.97030  0.13634  0.05937  1.0000
  H   H3        1.0  0.01952  0.16733  0.04850  1.0000
  H   H4        1.0  0.06233  0.09626  0.04072  1.0000
  H   H5        1.0  0.01333  0.06549  0.05151  1.0000
  H   H6        1.0  0.97818  0.10126  0.98307  1.0000
  H   H7        1.0  0.02888  0.12873  0.97288  1.0000
  H   H8        1.0  0.02762  0.06503  0.92474  1.0000
  H   H9        1.0  0.06797  0.05519  0.96525  1.0000
  H   H10       1.0  0.07894  0.02011  0.02614  1.0000
  H   H11       1.0  0.10070  0.98355  0.98424  1.0000
  H   H12       1.0  0.06965  0.92453  0.03653  1.0000
  H   H13       1.0  0.14569  0.97990  0.06684  1.0000
  H   H14       1.0  0.14885  0.93676  0.02648  1.0000
  H   H15       1.0  0.12013  0.92467  0.12384  1.0000
  H   H16       1.0  0.17237  0.90974  0.10076  1.0000
  H   H17       1.0  0.12349  0.88151  0.08350  1.0000
  H   H18       1.0  0.95309  0.04425  0.94088  1.0000
  H   H19       1.0  0.00156  0.99179  0.88826  1.0000
  H   H20       1.0  0.94500  0.00377  0.87982  1.0000
  H   H21       1.0  0.98118  0.91892  0.92211  1.0000
  H   H22       1.0  0.95703  0.92470  0.86936  1.0000
  H   H23       1.0  0.90482  0.89475  0.92742  1.0000
  H   H24       1.0  0.88479  0.94278  0.89975  1.0000
  H   H25       1.0  0.84937  0.91033  0.98644  1.0000
  H   H26       1.0  0.83482  0.94837  0.05784  1.0000
  H   H27       1.0  0.87966  0.01436  0.07951  1.0000
  H   H28       1.0  0.93865  0.04220  0.02984  1.0000
