data_image0
_chemical_formula_structural       C7NC4NCOCONC10H37
_chemical_formula_sum              "C23 N3 O2 H37"
_cell_length_a       30
_cell_length_b       30
_cell_length_c       30
_cell_angle_alpha    90
_cell_angle_beta     90
_cell_angle_gamma    90

_space_group_name_H-M_alt    "P 1"
_space_group_IT_number       1

loop_
  _space_group_symop_operation_xyz
  'x, y, z'

loop_
  _atom_site_type_symbol
  _atom_site_label
  _atom_site_symmetry_multiplicity
  _atom_site_fract_x
  _atom_site_fract_y
  _atom_site_fract_z
  _atom_site_occupancy
  C   C1        1.0  0.75988  0.01686  0.93530  1.0000
  C   C2        1.0  0.78594  0.97787  0.95423  1.0000
  C   C3        1.0  0.78913  0.97606  0.00520  1.0000
  C   C4        1.0  0.81188  0.01459  0.02993  1.0000
  C   C5        1.0  0.78161  0.05466  0.03939  1.0000
  C   C6        1.0  0.81536  0.09132  0.04827  1.0000
  C   C7        1.0  0.85129  0.08254  0.01333  1.0000
  N   N1        1.0  0.84987  0.03394  0.00536  1.0000
  C   C8        1.0  0.89192  0.01383  0.00744  1.0000
  C   C9        1.0  0.90889  0.99544  0.04695  1.0000
  C   C10       1.0  0.95125  0.97598  0.04870  1.0000
  C   C11       1.0  0.97812  0.97438  0.01085  1.0000
  N   N2        1.0  0.02009  0.95412  0.01510  1.0000
  C   C12       1.0  0.05233  0.94874  0.98284  1.0000
  O   O1        1.0  0.05212  0.96008  0.94369  1.0000
  C   C13       1.0  0.09400  0.92483  0.00141  1.0000
  O   O2        1.0  0.09555  0.91449  0.04084  1.0000
  N   N3        1.0  0.12676  0.91777  0.97011  1.0000
  C   C14       1.0  0.17009  0.90005  0.98131  1.0000
  C   C15       1.0  0.20113  0.93540  0.00103  1.0000
  C   C16       1.0  0.21181  0.97253  0.96778  1.0000
  C   C17       1.0  0.24898  0.00443  0.98247  1.0000
  C   C18       1.0  0.24083  0.03459  0.02330  1.0000
  C   C19       1.0  0.25135  0.01164  0.06758  1.0000
  C   C20       1.0  0.19439  0.05543  0.02416  1.0000
  C   C21       1.0  0.96206  0.99279  0.97138  1.0000
  C   C22       1.0  0.91959  0.01298  0.96937  1.0000
  C   C23       1.0  0.90423  0.03037  0.92480  1.0000
  H   H1        1.0  0.77778  0.04828  0.93973  1.0000
  H   H2        1.0  0.75494  0.01226  0.89942  1.0000
  H   H3        1.0  0.72700  0.01957  0.95086  1.0000
  H   H4        1.0  0.76975  0.94701  0.94307  1.0000
  H   H5        1.0  0.81932  0.97738  0.93955  1.0000
  H   H6        1.0  0.80782  0.94556  0.01313  1.0000
  H   H7        1.0  0.75571  0.97100  0.01917  1.0000
  H   H8        1.0  0.82209  0.00206  0.06272  1.0000
  H   H9        1.0  0.76075  0.06365  0.01093  1.0000
  H   H10       1.0  0.75966  0.04890  0.06796  1.0000
  H   H11       1.0  0.82935  0.08762  0.08184  1.0000
  H   H12       1.0  0.80108  0.12474  0.04549  1.0000
  H   H13       1.0  0.84283  0.09979  0.98226  1.0000
  H   H14       1.0  0.88374  0.09487  0.02479  1.0000
  H   H15       1.0  0.88977  0.99660  0.07763  1.0000
  H   H16       1.0  0.96270  0.96229  0.08023  1.0000
  H   H17       1.0  0.02865  0.94174  0.04551  1.0000
  H   H18       1.0  0.12104  0.93077  0.93931  1.0000
  H   H19       1.0  0.16560  0.87307  0.00551  1.0000
  H   H20       1.0  0.18432  0.88574  0.95091  1.0000
  H   H21       1.0  0.18542  0.94953  0.03074  1.0000
  H   H22       1.0  0.23212  0.91916  0.01156  1.0000
  H   H23       1.0  0.22248  0.95721  0.93630  1.0000
  H   H24       1.0  0.18158  0.99149  0.95994  1.0000
  H   H25       1.0  0.25539  0.02655  0.95399  1.0000
  H   H26       1.0  0.27992  0.98551  0.98724  1.0000
  H   H27       1.0  0.26482  0.06214  0.02040  1.0000
  H   H28       1.0  0.22710  0.98589  0.07610  1.0000
  H   H29       1.0  0.28447  0.99632  0.06680  1.0000
  H   H30       1.0  0.25119  0.03602  0.09479  1.0000
  H   H31       1.0  0.18715  0.07228  0.99261  1.0000
  H   H32       1.0  0.16841  0.03052  0.03009  1.0000
  H   H33       1.0  0.19202  0.08030  0.05079  1.0000
  H   H34       1.0  0.98193  0.99187  0.94112  1.0000
  H   H35       1.0  0.88681  0.00404  0.90655  1.0000
  H   H36       1.0  0.88220  0.05918  0.92799  1.0000
  H   H37       1.0  0.93268  0.04139  0.90472  1.0000
