data_image0
_chemical_formula_structural       C6NC2ONC4O2C5NC2SO2H23
_chemical_formula_sum              "C19 N3 O5 S1 H23"
_cell_length_a       30
_cell_length_b       30
_cell_length_c       30
_cell_angle_alpha    90
_cell_angle_beta     90
_cell_angle_gamma    90

_space_group_name_H-M_alt    "P 1"
_space_group_IT_number       1

loop_
  _space_group_symop_operation_xyz
  'x, y, z'

loop_
  _atom_site_type_symbol
  _atom_site_label
  _atom_site_symmetry_multiplicity
  _atom_site_fract_x
  _atom_site_fract_y
  _atom_site_fract_z
  _atom_site_occupancy
  C   C1        1.0  0.14960  0.90271  0.11617  1.0000
  C   C2        1.0  0.11679  0.93517  0.13718  1.0000
  C   C3        1.0  0.11187  0.97883  0.11122  1.0000
  C   C4        1.0  0.09186  0.97247  0.06476  1.0000
  C   C5        1.0  0.08475  0.01719  0.04120  1.0000
  C   C6        1.0  0.06478  0.01202  0.99451  1.0000
  N   N1        1.0  0.01531  0.01750  0.99271  1.0000
  C   C7        1.0  0.99014  0.98125  0.01510  1.0000
  C   C8        1.0  0.94282  0.97439  0.99860  1.0000
  O   O1        1.0  0.91136  0.97042  0.02467  1.0000
  N   N2        1.0  0.93689  0.97134  0.95326  1.0000
  C   C9        1.0  0.89987  0.94907  0.93124  1.0000
  C   C10       1.0  0.92930  0.94585  0.88985  1.0000
  C   C11       1.0  0.96902  0.96295  0.91749  1.0000
  C   C12       1.0  0.99749  0.00085  0.89627  1.0000
  O   O2        1.0  0.03086  0.99255  0.87348  1.0000
  O   O3        1.0  0.98589  0.04614  0.90271  1.0000
  C   C13       1.0  0.94707  0.06154  0.92409  1.0000
  C   C14       1.0  0.90873  0.06613  0.89820  1.0000
  C   C15       1.0  0.86967  0.08236  0.91777  1.0000
  C   C16       1.0  0.86916  0.09424  0.96295  1.0000
  C   C17       1.0  0.82904  0.11123  0.98263  1.0000
  N   N3        1.0  0.79641  0.12508  0.99815  1.0000
  C   C18       1.0  0.90799  0.09024  0.98852  1.0000
  C   C19       1.0  0.94715  0.07417  0.96887  1.0000
  S   S1        1.0  0.99631  0.07064  0.00136  1.0000
  O   O4        1.0  0.98350  0.07360  0.04782  1.0000
  O   O5        1.0  0.02756  0.10178  0.98204  1.0000
  H   H1        1.0  0.13703  0.88981  0.08448  1.0000
  H   H2        1.0  0.15492  0.87418  0.13831  1.0000
  H   H3        1.0  0.18194  0.91859  0.11024  1.0000
  H   H4        1.0  0.08421  0.91899  0.14064  1.0000
  H   H5        1.0  0.12824  0.94300  0.17097  1.0000
  H   H6        1.0  0.09035  0.00119  0.13056  1.0000
  H   H7        1.0  0.14445  0.99521  0.10864  1.0000
  H   H8        1.0  0.06029  0.95456  0.06789  1.0000
  H   H9        1.0  0.11399  0.95178  0.04436  1.0000
  H   H10       1.0  0.11747  0.03314  0.03780  1.0000
  H   H11       1.0  0.06466  0.03925  0.06211  1.0000
  H   H12       1.0  0.07353  0.97960  0.97998  1.0000
  H   H13       1.0  0.07976  0.03670  0.97205  1.0000
  H   H14       1.0  0.98922  0.98712  0.05114  1.0000
  H   H15       1.0  0.00736  0.94939  0.00996  1.0000
  H   H16       1.0  0.87036  0.97002  0.92776  1.0000
  H   H17       1.0  0.89112  0.91708  0.94636  1.0000
  H   H18       1.0  0.93343  0.91212  0.87661  1.0000
  H   H19       1.0  0.91894  0.96776  0.86260  1.0000
  H   H20       1.0  0.99107  0.93537  0.92747  1.0000
  H   H21       1.0  0.90912  0.05759  0.86300  1.0000
  H   H22       1.0  0.83971  0.08592  0.89757  1.0000
  H   H23       1.0  0.90764  0.09995  0.02353  1.0000
