data_image0
_chemical_formula_structural       C5NCOC3ONC11O2C2NC5H37
_chemical_formula_sum              "C27 N3 O4 H37"
_cell_length_a       30
_cell_length_b       30
_cell_length_c       30
_cell_angle_alpha    90
_cell_angle_beta     90
_cell_angle_gamma    90

_space_group_name_H-M_alt    "P 1"
_space_group_IT_number       1

loop_
  _space_group_symop_operation_xyz
  'x, y, z'

loop_
  _atom_site_type_symbol
  _atom_site_label
  _atom_site_symmetry_multiplicity
  _atom_site_fract_x
  _atom_site_fract_y
  _atom_site_fract_z
  _atom_site_occupancy
  C   C1        1.0  0.73005  0.99264  0.11059  1.0000
  C   C2        1.0  0.77659  0.01276  0.10944  1.0000
  C   C3        1.0  0.79659  0.01504  0.06251  1.0000
  C   C4        1.0  0.80682  0.96893  0.04285  1.0000
  C   C5        1.0  0.82872  0.96957  0.99623  1.0000
  N   N1        1.0  0.87386  0.98776  0.99987  1.0000
  C   C6        1.0  0.91063  0.96712  0.98161  1.0000
  O   O1        1.0  0.90933  0.93123  0.96209  1.0000
  C   C7        1.0  0.95316  0.99342  0.98817  1.0000
  C   C8        1.0  0.99246  0.97067  0.96545  1.0000
  C   C9        1.0  0.03476  0.99793  0.96917  1.0000
  O   O2        1.0  0.03583  0.03455  0.98721  1.0000
  N   N2        1.0  0.07034  0.97701  0.94810  1.0000
  C   C10       1.0  0.11446  0.99418  0.94838  1.0000
  C   C11       1.0  0.13619  0.00793  0.98788  1.0000
  C   C12       1.0  0.11806  0.00105  0.03315  1.0000
  C   C13       1.0  0.10959  0.03721  0.06164  1.0000
  C   C14       1.0  0.09342  0.03040  0.10478  1.0000
  C   C15       1.0  0.08566  0.98729  0.12022  1.0000
  C   C16       1.0  0.09405  0.95097  0.09255  1.0000
  C   C17       1.0  0.11019  0.95781  0.04942  1.0000
  C   C18       1.0  0.17959  0.02536  0.98437  1.0000
  C   C19       1.0  0.20039  0.02723  0.94305  1.0000
  C   C20       1.0  0.24684  0.04498  0.93729  1.0000
  O   O3        1.0  0.26695  0.04603  0.90190  1.0000
  O   O4        1.0  0.26317  0.05970  0.97698  1.0000
  C   C21       1.0  0.30753  0.07761  0.97579  1.0000
  C   C22       1.0  0.34150  0.04054  0.98123  1.0000
  N   N3        1.0  0.18057  0.01227  0.90530  1.0000
  C   C23       1.0  0.13852  0.99603  0.90819  1.0000
  C   C24       1.0  0.11872  0.98124  0.86460  1.0000
  C   C25       1.0  0.80159  0.99435  0.95969  1.0000
  C   C26       1.0  0.75333  0.97777  0.95690  1.0000
  C   C27       1.0  0.82326  0.98923  0.91357  1.0000
  H   H1        1.0  0.70759  0.01026  0.08784  1.0000
  H   H2        1.0  0.73047  0.95737  0.10138  1.0000
  H   H3        1.0  0.71617  0.99507  0.14428  1.0000
  H   H4        1.0  0.79865  0.99380  0.13155  1.0000
  H   H5        1.0  0.77480  0.04670  0.12284  1.0000
  H   H6        1.0  0.82740  0.03457  0.06444  1.0000
  H   H7        1.0  0.77376  0.03349  0.04076  1.0000
  H   H8        1.0  0.82897  0.95109  0.06592  1.0000
  H   H9        1.0  0.77615  0.94921  0.04107  1.0000
  H   H10       1.0  0.83175  0.93458  0.98587  1.0000
  H   H11       1.0  0.87755  0.01902  0.01203  1.0000
  H   H12       1.0  0.95944  0.99647  0.02399  1.0000
  H   H13       1.0  0.94828  0.02695  0.97456  1.0000
  H   H14       1.0  0.98519  0.96535  0.92997  1.0000
  H   H15       1.0  0.99845  0.93794  0.98073  1.0000
  H   H16       1.0  0.06141  0.95814  0.92162  1.0000
  H   H17       1.0  0.11462  0.07117  0.04992  1.0000
  H   H18       1.0  0.08661  0.05888  0.12613  1.0000
  H   H19       1.0  0.07304  0.98198  0.15375  1.0000
  H   H20       1.0  0.08822  0.91728  0.10456  1.0000
  H   H21       1.0  0.11695  0.92901  0.02844  1.0000
  H   H22       1.0  0.19708  0.03595  0.01428  1.0000
  H   H23       1.0  0.31029  0.10102  0.00364  1.0000
  H   H24       1.0  0.31344  0.09660  0.94515  1.0000
  H   H25       1.0  0.33518  0.02164  0.01184  1.0000
  H   H26       1.0  0.33950  0.01686  0.95356  1.0000
  H   H27       1.0  0.37535  0.05405  0.98250  1.0000
  H   H28       1.0  0.11103  0.94559  0.86553  1.0000
  H   H29       1.0  0.08836  0.00012  0.85732  1.0000
  H   H30       1.0  0.14212  0.98680  0.83715  1.0000
  H   H31       1.0  0.80089  0.03013  0.96732  1.0000
  H   H32       1.0  0.73580  0.99334  0.92888  1.0000
  H   H33       1.0  0.73447  0.98606  0.98704  1.0000
  H   H34       1.0  0.75209  0.94154  0.95226  1.0000
  H   H35       1.0  0.85602  0.00526  0.91244  1.0000
  H   H36       1.0  0.80275  0.00493  0.88767  1.0000
  H   H37       1.0  0.82744  0.95396  0.90477  1.0000
