data_image0
_chemical_formula_structural       C4NC3ONC2OC3NC8H29
_chemical_formula_sum              "C20 N3 O2 H29"
_cell_length_a       30
_cell_length_b       30
_cell_length_c       30
_cell_angle_alpha    90
_cell_angle_beta     90
_cell_angle_gamma    90

_space_group_name_H-M_alt    "P 1"
_space_group_IT_number       1

loop_
  _space_group_symop_operation_xyz
  'x, y, z'

loop_
  _atom_site_type_symbol
  _atom_site_label
  _atom_site_symmetry_multiplicity
  _atom_site_fract_x
  _atom_site_fract_y
  _atom_site_fract_z
  _atom_site_occupancy
  C   C1        1.0  0.20713  0.06304  0.03999  1.0000
  C   C2        1.0  0.20588  0.03487  0.99786  1.0000
  C   C3        1.0  0.15867  0.02577  0.98092  1.0000
  C   C4        1.0  0.13107  0.99727  0.01286  1.0000
  N   N1        1.0  0.08759  0.98613  0.99436  1.0000
  C   C5        1.0  0.04968  0.01055  0.00166  1.0000
  C   C6        1.0  0.01466  0.99019  0.97952  1.0000
  C   C7        1.0  0.96869  0.00600  0.97759  1.0000
  O   O1        1.0  0.94903  0.00835  0.94169  1.0000
  N   N2        1.0  0.94834  0.01897  0.01755  1.0000
  C   C8        1.0  0.95969  0.99906  0.06083  1.0000
  C   C9        1.0  0.94683  0.02983  0.09938  1.0000
  O   O2        1.0  0.90082  0.04233  0.09684  1.0000
  C   C10       1.0  0.89204  0.06579  0.05597  1.0000
  C   C11       1.0  0.90245  0.03705  0.01462  1.0000
  C   C12       1.0  0.86725  0.99938  0.00823  1.0000
  N   N3        1.0  0.82154  0.01526  0.99851  1.0000
  C   C13       1.0  0.81827  0.03303  0.95307  1.0000
  C   C14       1.0  0.78976  0.97853  0.00388  1.0000
  C   C15       1.0  0.03303  0.95251  0.95669  1.0000
  C   C16       1.0  0.01480  0.91978  0.92821  1.0000
  C   C17       1.0  0.04209  0.88601  0.91127  1.0000
  C   C18       1.0  0.08711  0.88442  0.92225  1.0000
  C   C19       1.0  0.10610  0.91647  0.95024  1.0000
  C   C20       1.0  0.07843  0.95028  0.96711  1.0000
  H   H1        1.0  0.24166  0.07104  0.04868  1.0000
  H   H2        1.0  0.18910  0.09441  0.03532  1.0000
  H   H3        1.0  0.19245  0.04539  0.06832  1.0000
  H   H4        1.0  0.22325  0.00328  0.00383  1.0000
  H   H5        1.0  0.22443  0.05234  0.97166  1.0000
  H   H6        1.0  0.16118  0.00889  0.94856  1.0000
  H   H7        1.0  0.14153  0.05746  0.97458  1.0000
  H   H8        1.0  0.12509  0.01476  0.04436  1.0000
  H   H9        1.0  0.14810  0.96598  0.02090  1.0000
  H   H10       1.0  0.05043  0.04066  0.02152  1.0000
  H   H11       1.0  0.99489  0.99041  0.06332  1.0000
  H   H12       1.0  0.94096  0.96776  0.06308  1.0000
  H   H13       1.0  0.96742  0.06003  0.09949  1.0000
  H   H14       1.0  0.95198  0.01273  0.13120  1.0000
  H   H15       1.0  0.91239  0.09619  0.05566  1.0000
  H   H16       1.0  0.85713  0.07635  0.05642  1.0000
  H   H17       1.0  0.90166  0.05898  0.98541  1.0000
  H   H18       1.0  0.87811  0.97614  0.98213  1.0000
  H   H19       1.0  0.86648  0.97978  0.03914  1.0000
  H   H20       1.0  0.78405  0.04372  0.94601  1.0000
  H   H21       1.0  0.83908  0.06269  0.94890  1.0000
  H   H22       1.0  0.82794  0.00842  0.92787  1.0000
  H   H23       1.0  0.79684  0.95072  0.98126  1.0000
  H   H24       1.0  0.75566  0.99004  0.99768  1.0000
  H   H25       1.0  0.79035  0.96596  0.03817  1.0000
  H   H26       1.0  0.97971  0.92096  0.91925  1.0000
  H   H27       1.0  0.02794  0.86096  0.88925  1.0000
  H   H28       1.0  0.10791  0.85801  0.90869  1.0000
  H   H29       1.0  0.14134  0.91506  0.95823  1.0000
