data_image0
_chemical_formula_structural       C8ClOC2NH18
_chemical_formula_sum              "C10 Cl1 O1 N1 H18"
_cell_length_a       30
_cell_length_b       30
_cell_length_c       30
_cell_angle_alpha    90
_cell_angle_beta     90
_cell_angle_gamma    90

_space_group_name_H-M_alt    "P 1"
_space_group_IT_number       1

loop_
  _space_group_symop_operation_xyz
  'x, y, z'

loop_
  _atom_site_type_symbol
  _atom_site_label
  _atom_site_symmetry_multiplicity
  _atom_site_fract_x
  _atom_site_fract_y
  _atom_site_fract_z
  _atom_site_occupancy
  C   C1        1.0  0.11977  0.04305  0.99411  1.0000
  C   C2        1.0  0.09757  0.00184  0.01380  1.0000
  C   C3        1.0  0.07393  0.97364  0.97852  1.0000
  C   C4        1.0  0.02353  0.98166  0.97474  1.0000
  C   C5        1.0  0.99392  0.96875  0.01557  1.0000
  C   C6        1.0  0.97165  0.92336  0.01208  1.0000
  C   C7        1.0  0.96649  0.00953  0.00231  1.0000
  C   C8        1.0  0.92539  0.02312  0.01384  1.0000
  Cl  Cl1       1.0  0.90536  0.07410  0.99446  1.0000
  O   O1        1.0  0.90073  0.99596  0.04169  1.0000
  C   C9        1.0  0.85715  0.01084  0.05277  1.0000
  C   C10       1.0  0.00385  0.02972  0.97520  1.0000
  N   N1        1.0  0.99069  0.04101  0.92985  1.0000
  H   H1        1.0  0.09584  0.06471  0.97722  1.0000
  H   H2        1.0  0.14544  0.03361  0.96993  1.0000
  H   H3        1.0  0.13590  0.06242  0.02049  1.0000
  H   H4        1.0  0.12391  0.98158  0.02905  1.0000
  H   H5        1.0  0.07508  0.01173  0.04075  1.0000
  H   H6        1.0  0.08947  0.97885  0.94583  1.0000
  H   H7        1.0  0.07901  0.93832  0.98659  1.0000
  H   H8        1.0  0.01307  0.96240  0.94509  1.0000
  H   H9        1.0  0.01067  0.97212  0.04791  1.0000
  H   H10       1.0  0.99666  0.89681  0.01360  1.0000
  H   H11       1.0  0.95314  0.91956  0.98084  1.0000
  H   H12       1.0  0.94842  0.91812  0.03973  1.0000
  H   H13       1.0  0.85829  0.04224  0.07133  1.0000
  H   H14       1.0  0.84196  0.98572  0.07441  1.0000
  H   H15       1.0  0.83631  0.01390  0.02297  1.0000
  H   H16       1.0  0.02315  0.05545  0.99223  1.0000
  H   H17       1.0  0.97233  0.01695  0.91440  1.0000
  H   H18       1.0  0.97131  0.06893  0.92868  1.0000
