data_image0
_chemical_formula_structural       C7NCONCNC2SH19
_chemical_formula_sum              "C11 N3 O1 S1 H19"
_cell_length_a       30
_cell_length_b       30
_cell_length_c       30
_cell_angle_alpha    90
_cell_angle_beta     90
_cell_angle_gamma    90

_space_group_name_H-M_alt    "P 1"
_space_group_IT_number       1

loop_
  _space_group_symop_operation_xyz
  'x, y, z'

loop_
  _atom_site_type_symbol
  _atom_site_label
  _atom_site_symmetry_multiplicity
  _atom_site_fract_x
  _atom_site_fract_y
  _atom_site_fract_z
  _atom_site_occupancy
  C   C1        1.0  0.84286  0.94598  0.03203  1.0000
  C   C2        1.0  0.84907  0.96623  0.98597  1.0000
  C   C3        1.0  0.89797  0.97246  0.97289  1.0000
  C   C4        1.0  0.92249  0.00655  0.00192  1.0000
  C   C5        1.0  0.97009  0.01418  0.98506  1.0000
  C   C6        1.0  0.99777  0.04506  0.01536  1.0000
  C   C7        1.0  0.97906  0.09237  0.01727  1.0000
  N   N1        1.0  0.04394  0.04697  0.99981  1.0000
  C   C8        1.0  0.07352  0.01281  0.00968  1.0000
  O   O1        1.0  0.06318  0.98117  0.03321  1.0000
  N   N2        1.0  0.11413  0.02079  0.99023  1.0000
  C   C9        1.0  0.14880  0.99140  0.99280  1.0000
  N   N3        1.0  0.14972  0.95048  0.00777  1.0000
  C   C10       1.0  0.19230  0.93359  0.00346  1.0000
  C   C11       1.0  0.22312  0.96210  0.98475  1.0000
  S   S1        1.0  0.19786  0.01185  0.97215  1.0000
  H   H1        1.0  0.86093  0.91442  0.03502  1.0000
  H   H2        1.0  0.85452  0.96850  0.05823  1.0000
  H   H3        1.0  0.80749  0.93936  0.03812  1.0000
  H   H4        1.0  0.83156  0.99826  0.98431  1.0000
  H   H5        1.0  0.83324  0.94426  0.96142  1.0000
  H   H6        1.0  0.89915  0.98343  0.93802  1.0000
  H   H7        1.0  0.91523  0.94027  0.97439  1.0000
  H   H8        1.0  0.90390  0.03797  0.00164  1.0000
  H   H9        1.0  0.92380  0.99485  0.03649  1.0000
  H   H10       1.0  0.96905  0.02793  0.95116  1.0000
  H   H11       1.0  0.98685  0.98178  0.98231  1.0000
  H   H12       1.0  0.99805  0.03134  0.04926  1.0000
  H   H13       1.0  0.94593  0.09310  0.03248  1.0000
  H   H14       1.0  0.00074  0.11397  0.03721  1.0000
  H   H15       1.0  0.97672  0.10703  0.98390  1.0000
  H   H16       1.0  0.04881  0.06188  0.97007  1.0000
  H   H17       1.0  0.12110  0.05150  0.97886  1.0000
  H   H18       1.0  0.19904  0.89991  0.01459  1.0000
  H   H19       1.0  0.25802  0.95625  0.97811  1.0000
