data_image0
_chemical_formula_structural       C6NC8OC2H31
_chemical_formula_sum              "C16 N1 O1 H31"
_cell_length_a       30
_cell_length_b       30
_cell_length_c       30
_cell_angle_alpha    90
_cell_angle_beta     90
_cell_angle_gamma    90

_space_group_name_H-M_alt    "P 1"
_space_group_IT_number       1

loop_
  _space_group_symop_operation_xyz
  'x, y, z'

loop_
  _atom_site_type_symbol
  _atom_site_label
  _atom_site_symmetry_multiplicity
  _atom_site_fract_x
  _atom_site_fract_y
  _atom_site_fract_z
  _atom_site_occupancy
  C   C1        1.0  0.17076  0.05005  0.00671  1.0000
  C   C2        1.0  0.16909  0.00990  0.97592  1.0000
  C   C3        1.0  0.13991  0.97127  0.99230  1.0000
  C   C4        1.0  0.08929  0.97984  0.99061  1.0000
  C   C5        1.0  0.06370  0.93547  0.99023  1.0000
  C   C6        1.0  0.01329  0.94380  0.98757  1.0000
  N   N1        1.0  0.99573  0.97719  0.01930  1.0000
  C   C7        1.0  0.97071  0.01347  0.99632  1.0000
  C   C8        1.0  0.96113  0.05416  0.02622  1.0000
  C   C9        1.0  0.92586  0.99567  0.97480  1.0000
  C   C10       1.0  0.91271  0.02494  0.93480  1.0000
  C   C11       1.0  0.88875  0.98460  0.00898  1.0000
  C   C12       1.0  0.89724  0.94037  0.03227  1.0000
  C   C13       1.0  0.85154  0.00863  0.01805  1.0000
  C   C14       1.0  0.83775  0.05203  0.99734  1.0000
  O   O1        1.0  0.82146  0.99571  0.05062  1.0000
  C   C15       1.0  0.03000  0.99121  0.05110  1.0000
  C   C16       1.0  0.07236  0.00934  0.02909  1.0000
  H   H1        1.0  0.19651  0.07333  0.99541  1.0000
  H   H2        1.0  0.17879  0.04018  0.04089  1.0000
  H   H3        1.0  0.13918  0.06820  0.00680  1.0000
  H   H4        1.0  0.20321  0.99729  0.97213  1.0000
  H   H5        1.0  0.15824  0.02048  0.94266  1.0000
  H   H6        1.0  0.14749  0.94270  0.97070  1.0000
  H   H7        1.0  0.15001  0.96135  0.02602  1.0000
  H   H8        1.0  0.08176  0.99692  0.95909  1.0000
  H   H9        1.0  0.07385  0.91530  0.96148  1.0000
  H   H10       1.0  0.07176  0.91582  0.02002  1.0000
  H   H11       1.0  0.99600  0.91217  0.99355  1.0000
  H   H12       1.0  0.00586  0.95306  0.95296  1.0000
  H   H13       1.0  0.99203  0.02594  0.96924  1.0000
  H   H14       1.0  0.99191  0.07138  0.03560  1.0000
  H   H15       1.0  0.94362  0.04475  0.05683  1.0000
  H   H16       1.0  0.94093  0.07898  0.00880  1.0000
  H   H17       1.0  0.93320  0.96377  0.95835  1.0000
  H   H18       1.0  0.90934  0.06018  0.94322  1.0000
  H   H19       1.0  0.88165  0.01329  0.91960  1.0000
  H   H20       1.0  0.93850  0.02289  0.90897  1.0000
  H   H21       1.0  0.91345  0.91651  0.00992  1.0000
  H   H22       1.0  0.86648  0.92389  0.04291  1.0000
  H   H23       1.0  0.91848  0.94526  0.06150  1.0000
  H   H24       1.0  0.86465  0.07652  0.99811  1.0000
  H   H25       1.0  0.81006  0.06696  0.01595  1.0000
  H   H26       1.0  0.82604  0.04709  0.96318  1.0000
  H   H27       1.0  0.83579  0.97498  0.07088  1.0000
  H   H28       1.0  0.03889  0.96226  0.07170  1.0000
  H   H29       1.0  0.01721  0.01513  0.07552  1.0000
  H   H30       1.0  0.09779  0.01279  0.05509  1.0000
  H   H31       1.0  0.06603  0.04297  0.01625  1.0000
