data_image0
_chemical_formula_structural       C4NCN2CNC8OC4S2O2C6H30
_chemical_formula_sum              "C24 N4 O3 S2 H30"
_cell_length_a       30
_cell_length_b       30
_cell_length_c       30
_cell_angle_alpha    90
_cell_angle_beta     90
_cell_angle_gamma    90

_space_group_name_H-M_alt    "P 1"
_space_group_IT_number       1

loop_
  _space_group_symop_operation_xyz
  'x, y, z'

loop_
  _atom_site_type_symbol
  _atom_site_label
  _atom_site_symmetry_multiplicity
  _atom_site_fract_x
  _atom_site_fract_y
  _atom_site_fract_z
  _atom_site_occupancy
  C   C1        1.0  0.80678  0.91869  0.93163  1.0000
  C   C2        1.0  0.84122  0.89544  0.96067  1.0000
  C   C3        1.0  0.85340  0.92185  0.00256  1.0000
  C   C4        1.0  0.87811  0.96532  0.99244  1.0000
  N   N1        1.0  0.88859  0.98835  0.03459  1.0000
  C   C5        1.0  0.93554  0.99487  0.04529  1.0000
  N   N2        1.0  0.95694  0.03196  0.03684  1.0000
  N   N3        1.0  0.00138  0.02885  0.04786  1.0000
  C   C6        1.0  0.01322  0.98893  0.06248  1.0000
  N   N4        1.0  0.05578  0.97668  0.07321  1.0000
  C   C7        1.0  0.06426  0.94300  0.10724  1.0000
  C   C8        1.0  0.11404  0.94666  0.11638  1.0000
  C   C9        1.0  0.12305  0.99629  0.11031  1.0000
  C   C10       1.0  0.09153  0.01046  0.07214  1.0000
  C   C11       1.0  0.11231  0.01280  0.02583  1.0000
  C   C12       1.0  0.09500  0.04343  0.99494  1.0000
  C   C13       1.0  0.11197  0.04641  0.95166  1.0000
  C   C14       1.0  0.14696  0.01906  0.93797  1.0000
  O   O1        1.0  0.16011  0.02536  0.89486  1.0000
  C   C15       1.0  0.19727  0.00080  0.87812  1.0000
  C   C16       1.0  0.24081  0.02392  0.88970  1.0000
  C   C17       1.0  0.16466  0.98860  0.96821  1.0000
  C   C18       1.0  0.14730  0.98531  0.01158  1.0000
  S   S1        1.0  0.96807  0.95296  0.06596  1.0000
  S   S2        1.0  0.85508  0.03018  0.05205  1.0000
  O   O2        1.0  0.86942  0.04473  0.09586  1.0000
  O   O3        1.0  0.80933  0.01560  0.04564  1.0000
  C   C19       1.0  0.86391  0.07496  0.01387  1.0000
  C   C20       1.0  0.83909  0.07699  0.97444  1.0000
  C   C21       1.0  0.84502  0.11267  0.94507  1.0000
  C   C22       1.0  0.87475  0.14673  0.95577  1.0000
  C   C23       1.0  0.89873  0.14525  0.99559  1.0000
  C   C24       1.0  0.89310  0.10956  0.02499  1.0000
  H   H1        1.0  0.77734  0.92807  0.95118  1.0000
  H   H2        1.0  0.79599  0.89643  0.90474  1.0000
  H   H3        1.0  0.82047  0.94883  0.91626  1.0000
  H   H4        1.0  0.82769  0.86309  0.97079  1.0000
  H   H5        1.0  0.87122  0.88870  0.94092  1.0000
  H   H6        1.0  0.82312  0.92888  0.02187  1.0000
  H   H7        1.0  0.87434  0.90071  0.02383  1.0000
  H   H8        1.0  0.90880  0.95797  0.97389  1.0000
  H   H9        1.0  0.85836  0.98673  0.97074  1.0000
  H   H10       1.0  0.04566  0.95057  0.13780  1.0000
  H   H11       1.0  0.05550  0.90940  0.09605  1.0000
  H   H12       1.0  0.13276  0.92677  0.09217  1.0000
  H   H13       1.0  0.12284  0.93476  0.14975  1.0000
  H   H14       1.0  0.11312  0.01359  0.14111  1.0000
  H   H15       1.0  0.15822  0.00393  0.10439  1.0000
  H   H16       1.0  0.07902  0.04379  0.08086  1.0000
  H   H17       1.0  0.06742  0.06516  0.00419  1.0000
  H   H18       1.0  0.09755  0.07023  0.92844  1.0000
  H   H19       1.0  0.19682  0.96580  0.88852  1.0000
  H   H20       1.0  0.19386  0.00042  0.84178  1.0000
  H   H21       1.0  0.24071  0.05820  0.87719  1.0000
  H   H22       1.0  0.24548  0.02589  0.92582  1.0000
  H   H23       1.0  0.26926  0.00622  0.87520  1.0000
  H   H24       1.0  0.19190  0.96657  0.95932  1.0000
  H   H25       1.0  0.16193  0.96072  0.03369  1.0000
  H   H26       1.0  0.81466  0.05138  0.96662  1.0000
  H   H27       1.0  0.82619  0.11419  0.91418  1.0000
  H   H28       1.0  0.87930  0.17467  0.93310  1.0000
  H   H29       1.0  0.92181  0.17196  0.00382  1.0000
  H   H30       1.0  0.91190  0.10887  0.05602  1.0000
