data_image0
_chemical_formula_structural       C5NCONC4FCClC3OH18
_chemical_formula_sum              "C14 N2 O2 F1 Cl1 H18"
_cell_length_a       30
_cell_length_b       30
_cell_length_c       30
_cell_angle_alpha    90
_cell_angle_beta     90
_cell_angle_gamma    90

_space_group_name_H-M_alt    "P 1"
_space_group_IT_number       1

loop_
  _space_group_symop_operation_xyz
  'x, y, z'

loop_
  _atom_site_type_symbol
  _atom_site_label
  _atom_site_symmetry_multiplicity
  _atom_site_fract_x
  _atom_site_fract_y
  _atom_site_fract_z
  _atom_site_occupancy
  C   C1        1.0  0.16432  0.09499  0.00358  1.0000
  C   C2        1.0  0.14283  0.05174  0.01896  1.0000
  C   C3        1.0  0.09648  0.04563  0.99845  1.0000
  C   C4        1.0  0.07379  0.00277  0.01457  1.0000
  C   C5        1.0  0.02610  0.99934  0.99574  1.0000
  N   N1        1.0  0.00523  0.95642  0.00703  1.0000
  C   C6        1.0  0.95934  0.94926  0.00293  1.0000
  O   O1        1.0  0.94414  0.91274  0.99244  1.0000
  N   N2        1.0  0.93393  0.98618  0.01297  1.0000
  C   C7        1.0  0.88759  0.99125  0.00695  1.0000
  C   C8        1.0  0.86175  0.96263  0.98072  1.0000
  C   C9        1.0  0.81598  0.96994  0.97574  1.0000
  C   C10       1.0  0.79602  0.00605  0.99678  1.0000
  F   F1        1.0  0.75211  0.01251  0.99152  1.0000
  C   C11       1.0  0.82138  0.03500  0.02266  1.0000
  Cl  Cl1       1.0  0.79703  0.08003  0.04865  1.0000
  C   C12       1.0  0.86711  0.02776  0.02769  1.0000
  C   C13       1.0  0.03380  0.91793  0.99753  1.0000
  C   C14       1.0  0.08087  0.92437  0.01595  1.0000
  O   O2        1.0  0.10004  0.96528  0.00031  1.0000
  H   H1        1.0  0.19735  0.09873  0.01861  1.0000
  H   H2        1.0  0.16827  0.09545  0.96730  1.0000
  H   H3        1.0  0.14414  0.12380  0.01328  1.0000
  H   H4        1.0  0.14030  0.05194  0.05541  1.0000
  H   H5        1.0  0.16451  0.02381  0.00976  1.0000
  H   H6        1.0  0.09988  0.04470  0.96204  1.0000
  H   H7        1.0  0.07561  0.07444  0.00684  1.0000
  H   H8        1.0  0.07256  0.00277  0.05116  1.0000
  H   H9        1.0  0.00610  0.02737  0.00762  1.0000
  H   H10       1.0  0.02668  0.00107  0.95920  1.0000
  H   H11       1.0  0.94872  0.00800  0.03381  1.0000
  H   H12       1.0  0.87642  0.93435  0.96345  1.0000
  H   H13       1.0  0.79595  0.94763  0.95548  1.0000
  H   H14       1.0  0.88647  0.05070  0.04796  1.0000
  H   H15       1.0  0.03495  0.91429  0.96116  1.0000
  H   H16       1.0  0.01908  0.88759  0.01152  1.0000
  H   H17       1.0  0.08079  0.92450  0.05250  1.0000
  H   H18       1.0  0.10241  0.89704  0.00497  1.0000
