data_image0
_chemical_formula_structural       C4ONCSC2NC8NC2OH25
_chemical_formula_sum              "C17 O2 N3 S1 H25"
_cell_length_a       30
_cell_length_b       30
_cell_length_c       30
_cell_angle_alpha    90
_cell_angle_beta     90
_cell_angle_gamma    90

_space_group_name_H-M_alt    "P 1"
_space_group_IT_number       1

loop_
  _space_group_symop_operation_xyz
  'x, y, z'

loop_
  _atom_site_type_symbol
  _atom_site_label
  _atom_site_symmetry_multiplicity
  _atom_site_fract_x
  _atom_site_fract_y
  _atom_site_fract_z
  _atom_site_occupancy
  C   C1        1.0  0.83587  0.00489  0.11141  1.0000
  C   C2        1.0  0.88655  0.01026  0.11000  1.0000
  C   C3        1.0  0.90563  0.00342  0.06315  1.0000
  C   C4        1.0  0.89301  0.04053  0.03091  1.0000
  O   O1        1.0  0.88270  0.07822  0.04313  1.0000
  N   N1        1.0  0.89361  0.02786  0.98693  1.0000
  C   C5        1.0  0.92549  0.04373  0.96320  1.0000
  S   S1        1.0  0.97119  0.07592  0.97355  1.0000
  C   C6        1.0  0.97942  0.05986  0.91523  1.0000
  C   C7        1.0  0.02304  0.03436  0.90670  1.0000
  N   N2        1.0  0.02805  0.99362  0.93264  1.0000
  C   C8        1.0  0.06648  0.97768  0.94588  1.0000
  C   C9        1.0  0.11017  0.98923  0.94575  1.0000
  C   C10       1.0  0.12475  0.95091  0.97530  1.0000
  C   C11       1.0  0.14269  0.96288  0.02190  1.0000
  C   C12       1.0  0.11772  0.00075  0.04534  1.0000
  C   C13       1.0  0.13502  0.00827  0.09240  1.0000
  C   C14       1.0  0.07744  0.93169  0.96694  1.0000
  C   C15       1.0  0.05042  0.92010  0.00531  1.0000
  N   N3        1.0  0.02870  0.90923  0.03558  1.0000
  C   C16       1.0  0.93232  0.03788  0.91336  1.0000
  C   C17       1.0  0.92549  0.99109  0.89494  1.0000
  O   O2        1.0  0.94615  0.95838  0.92264  1.0000
  H   H1        1.0  0.82593  0.97124  0.10135  1.0000
  H   H2        1.0  0.81911  0.02886  0.08936  1.0000
  H   H3        1.0  0.82359  0.01030  0.14550  1.0000
  H   H4        1.0  0.90146  0.98565  0.13268  1.0000
  H   H5        1.0  0.89565  0.04330  0.12268  1.0000
  H   H6        1.0  0.89425  0.97143  0.04966  1.0000
  H   H7        1.0  0.94218  0.00253  0.06495  1.0000
  H   H8        1.0  0.98023  0.08966  0.89381  1.0000
  H   H9        1.0  0.02501  0.02574  0.87116  1.0000
  H   H10       1.0  0.05104  0.05711  0.91329  1.0000
  H   H11       1.0  0.99990  0.97375  0.93255  1.0000
  H   H12       1.0  0.12797  0.01849  0.93394  1.0000
  H   H13       1.0  0.14997  0.92916  0.95976  1.0000
  H   H14       1.0  0.17783  0.97251  0.01855  1.0000
  H   H15       1.0  0.14228  0.93287  0.04290  1.0000
  H   H16       1.0  0.08202  0.99355  0.04746  1.0000
  H   H17       1.0  0.12110  0.03190  0.02656  1.0000
  H   H18       1.0  0.13351  0.97756  0.11194  1.0000
  H   H19       1.0  0.11443  0.03327  0.10923  1.0000
  H   H20       1.0  0.16956  0.02011  0.09231  1.0000
  H   H21       1.0  0.07787  0.90429  0.94252  1.0000
  H   H22       1.0  0.90884  0.05978  0.89508  1.0000
  H   H23       1.0  0.93957  0.98816  0.86143  1.0000
  H   H24       1.0  0.88988  0.98313  0.89270  1.0000
  H   H25       1.0  0.92490  0.95129  0.94642  1.0000
