data_image0
_chemical_formula_structural       C8N3C3OC2OC3OC2H25
_chemical_formula_sum              "C18 N3 O3 H25"
_cell_length_a       30
_cell_length_b       30
_cell_length_c       30
_cell_angle_alpha    90
_cell_angle_beta     90
_cell_angle_gamma    90

_space_group_name_H-M_alt    "P 1"
_space_group_IT_number       1

loop_
  _space_group_symop_operation_xyz
  'x, y, z'

loop_
  _atom_site_type_symbol
  _atom_site_label
  _atom_site_symmetry_multiplicity
  _atom_site_fract_x
  _atom_site_fract_y
  _atom_site_fract_z
  _atom_site_occupancy
  C   C1        1.0  0.83563  0.11531  0.01589  1.0000
  C   C2        1.0  0.86984  0.07829  0.01015  1.0000
  C   C3        1.0  0.84894  0.03227  0.01791  1.0000
  C   C4        1.0  0.88034  0.99260  0.01707  1.0000
  C   C5        1.0  0.92111  0.99292  0.99829  1.0000
  C   C6        1.0  0.95234  0.95616  0.00044  1.0000
  C   C7        1.0  0.99201  0.95399  0.97980  1.0000
  C   C8        1.0  0.01192  0.98715  0.94798  1.0000
  N   N1        1.0  0.04314  0.01714  0.96958  1.0000
  N   N2        1.0  0.03098  0.05948  0.97857  1.0000
  N   N3        1.0  0.06572  0.07965  0.99703  1.0000
  C   C9        1.0  0.10007  0.04969  0.99910  1.0000
  C   C10       1.0  0.14359  0.05460  0.01537  1.0000
  C   C11       1.0  0.17266  0.01801  0.01321  1.0000
  O   O1        1.0  0.21604  0.01899  0.02808  1.0000
  C   C12       1.0  0.23166  0.05920  0.04764  1.0000
  C   C13       1.0  0.15823  0.97701  0.99492  1.0000
  O   O2        1.0  0.18957  0.94352  0.99441  1.0000
  C   C14       1.0  0.17655  0.90124  0.97760  1.0000
  C   C15       1.0  0.11464  0.97196  0.97858  1.0000
  C   C16       1.0  0.08658  0.00915  0.98137  1.0000
  O   O3        1.0  0.86650  0.95552  0.04115  1.0000
  C   C17       1.0  0.82611  0.93550  0.02554  1.0000
  C   C18       1.0  0.83400  0.90814  0.98366  1.0000
  H   H1        1.0  0.80806  0.11139  0.99230  1.0000
  H   H2        1.0  0.85109  0.14782  0.00995  1.0000
  H   H3        1.0  0.82189  0.11532  0.04969  1.0000
  H   H4        1.0  0.89733  0.08377  0.03360  1.0000
  H   H5        1.0  0.88357  0.08042  0.97636  1.0000
  H   H6        1.0  0.83244  0.03280  0.05058  1.0000
  H   H7        1.0  0.82283  0.02695  0.99288  1.0000
  H   H8        1.0  0.93223  0.02266  0.98093  1.0000
  H   H9        1.0  0.94279  0.92837  0.02181  1.0000
  H   H10       1.0  0.01213  0.92438  0.98579  1.0000
  H   H11       1.0  0.03014  0.96953  0.92166  1.0000
  H   H12       1.0  0.98659  0.00735  0.93117  1.0000
  H   H13       1.0  0.15315  0.08660  0.02896  1.0000
  H   H14       1.0  0.21244  0.06768  0.07748  1.0000
  H   H15       1.0  0.23137  0.08655  0.02348  1.0000
  H   H16       1.0  0.26625  0.05388  0.05791  1.0000
  H   H17       1.0  0.14941  0.88695  0.99740  1.0000
  H   H18       1.0  0.16747  0.90335  0.94231  1.0000
  H   H19       1.0  0.20521  0.87884  0.98032  1.0000
  H   H20       1.0  0.10259  0.94107  0.96442  1.0000
  H   H21       1.0  0.81473  0.91317  0.05210  1.0000
  H   H22       1.0  0.79960  0.96010  0.02063  1.0000
  H   H23       1.0  0.84402  0.92938  0.95574  1.0000
  H   H24       1.0  0.86082  0.88396  0.98894  1.0000
  H   H25       1.0  0.80371  0.89022  0.97412  1.0000
