data_image0
_chemical_formula_structural       C6NC2NC5NC2H27
_chemical_formula_sum              "C15 N3 H27"
_cell_length_a       30
_cell_length_b       30
_cell_length_c       30
_cell_angle_alpha    90
_cell_angle_beta     90
_cell_angle_gamma    90

_space_group_name_H-M_alt    "P 1"
_space_group_IT_number       1

loop_
  _space_group_symop_operation_xyz
  'x, y, z'

loop_
  _atom_site_type_symbol
  _atom_site_label
  _atom_site_symmetry_multiplicity
  _atom_site_fract_x
  _atom_site_fract_y
  _atom_site_fract_z
  _atom_site_occupancy
  C   C1        1.0  0.13379  0.94670  0.96378  1.0000
  C   C2        1.0  0.12512  0.99271  0.98322  1.0000
  C   C3        1.0  0.08053  0.99645  0.00784  1.0000
  C   C4        1.0  0.04008  0.98933  0.97726  1.0000
  C   C5        1.0  0.99327  0.00213  0.99666  1.0000
  C   C6        1.0  0.98279  0.05247  0.98770  1.0000
  N   N1        1.0  0.01340  0.08527  0.00547  1.0000
  C   C7        1.0  0.01188  0.10412  0.04694  1.0000
  C   C8        1.0  0.04570  0.13507  0.04713  1.0000
  N   N2        1.0  0.06684  0.13623  0.00666  1.0000
  C   C9        1.0  0.04623  0.10646  0.98203  1.0000
  C   C10       1.0  0.98971  0.98979  0.04669  1.0000
  C   C11       1.0  0.94250  0.99314  0.06561  1.0000
  C   C12       1.0  0.90957  0.96485  0.03912  1.0000
  C   C13       1.0  0.91034  0.97697  0.98944  1.0000
  N   N3        1.0  0.87774  0.95211  0.96267  1.0000
  C   C14       1.0  0.88111  0.90376  0.96455  1.0000
  C   C15       1.0  0.95801  0.97382  0.97050  1.0000
  H   H1        1.0  0.11013  0.93875  0.93720  1.0000
  H   H2        1.0  0.16734  0.94528  0.94949  1.0000
  H   H3        1.0  0.13137  0.92094  0.98951  1.0000
  H   H4        1.0  0.12669  0.01767  0.95658  1.0000
  H   H5        1.0  0.15198  0.00066  0.00670  1.0000
  H   H6        1.0  0.07934  0.02919  0.02370  1.0000
  H   H7        1.0  0.07992  0.97186  0.03488  1.0000
  H   H8        1.0  0.03980  0.95380  0.96850  1.0000
  H   H9        1.0  0.04513  0.00714  0.94569  1.0000
  H   H10       1.0  0.98129  0.05832  0.95158  1.0000
  H   H11       1.0  0.94990  0.06174  0.00054  1.0000
  H   H12       1.0  0.98799  0.09440  0.07208  1.0000
  H   H13       1.0  0.05570  0.15681  0.07413  1.0000
  H   H14       1.0  0.05386  0.09888  0.94759  1.0000
  H   H15       1.0  0.00118  0.95531  0.05125  1.0000
  H   H16       1.0  0.01185  0.01058  0.06694  1.0000
  H   H17       1.0  0.93140  0.02793  0.06606  1.0000
  H   H18       1.0  0.94269  0.98194  0.10040  1.0000
  H   H19       1.0  0.91831  0.92969  0.04400  1.0000
  H   H20       1.0  0.87596  0.96952  0.05272  1.0000
  H   H21       1.0  0.89954  0.01178  0.98680  1.0000
  H   H22       1.0  0.87979  0.96204  0.93021  1.0000
  H   H23       1.0  0.91356  0.89163  0.95323  1.0000
  H   H24       1.0  0.85587  0.88929  0.94251  1.0000
  H   H25       1.0  0.87430  0.89089  0.99797  1.0000
  H   H26       1.0  0.96850  0.93876  0.97120  1.0000
  H   H27       1.0  0.95800  0.98381  0.93528  1.0000
