data_image0
_chemical_formula_structural       C4ON2COC4NC8H21
_chemical_formula_sum              "C17 O2 N3 H21"
_cell_length_a       30
_cell_length_b       30
_cell_length_c       30
_cell_angle_alpha    90
_cell_angle_beta     90
_cell_angle_gamma    90

_space_group_name_H-M_alt    "P 1"
_space_group_IT_number       1

loop_
  _space_group_symop_operation_xyz
  'x, y, z'

loop_
  _atom_site_type_symbol
  _atom_site_label
  _atom_site_symmetry_multiplicity
  _atom_site_fract_x
  _atom_site_fract_y
  _atom_site_fract_z
  _atom_site_occupancy
  C   C1        1.0  0.21994  0.93774  0.95609  1.0000
  C   C2        1.0  0.21455  0.95420  0.00379  1.0000
  C   C3        1.0  0.18827  0.99769  0.00659  1.0000
  C   C4        1.0  0.13870  0.99188  0.99856  1.0000
  O   O1        1.0  0.11975  0.95574  0.99516  1.0000
  N   N1        1.0  0.11623  0.03206  0.99583  1.0000
  N   N2        1.0  0.06933  0.03011  0.99743  1.0000
  C   C5        1.0  0.04838  0.06061  0.02497  1.0000
  O   O2        1.0  0.06860  0.09165  0.04252  1.0000
  C   C6        1.0  0.00004  0.05331  0.03359  1.0000
  C   C7        1.0  0.98147  0.07234  0.07193  1.0000
  C   C8        1.0  0.93633  0.06687  0.08225  1.0000
  C   C9        1.0  0.91034  0.04188  0.05268  1.0000
  N   N3        1.0  0.86561  0.03137  0.05439  1.0000
  C   C10       1.0  0.85428  0.00651  0.01798  1.0000
  C   C11       1.0  0.89188  0.00042  0.99224  1.0000
  C   C12       1.0  0.89106  0.97504  0.94947  1.0000
  C   C13       1.0  0.84839  0.94667  0.94561  1.0000
  C   C14       1.0  0.80645  0.97266  0.95988  1.0000
  C   C15       1.0  0.80905  0.98842  0.00866  1.0000
  C   C16       1.0  0.92768  0.02274  0.01391  1.0000
  C   C17       1.0  0.97325  0.02873  0.00407  1.0000
  H   H1        1.0  0.18770  0.93035  0.94072  1.0000
  H   H2        1.0  0.23988  0.90719  0.95554  1.0000
  H   H3        1.0  0.23695  0.96264  0.93554  1.0000
  H   H4        1.0  0.24782  0.95968  0.01789  1.0000
  H   H5        1.0  0.19858  0.92821  0.02389  1.0000
  H   H6        1.0  0.19210  0.01159  0.04019  1.0000
  H   H7        1.0  0.20150  0.02208  0.98282  1.0000
  H   H8        1.0  0.12957  0.06009  0.00978  1.0000
  H   H9        1.0  0.05629  0.99903  0.99288  1.0000
  H   H10       1.0  0.00235  0.09177  0.09439  1.0000
  H   H11       1.0  0.92223  0.08168  0.11209  1.0000
  H   H12       1.0  0.84465  0.04085  0.07900  1.0000
  H   H13       1.0  0.92037  0.95343  0.94678  1.0000
  H   H14       1.0  0.89231  0.99881  0.92173  1.0000
  H   H15       1.0  0.84469  0.93497  0.91121  1.0000
  H   H16       1.0  0.85162  0.91695  0.96671  1.0000
  H   H17       1.0  0.80253  0.00167  0.93792  1.0000
  H   H18       1.0  0.77677  0.95185  0.95540  1.0000
  H   H19       1.0  0.78332  0.01356  0.01495  1.0000
  H   H20       1.0  0.80271  0.96016  0.03095  1.0000
  H   H21       1.0  0.98649  0.01478  0.97346  1.0000
