data_image0
_chemical_formula_structural       C6OCNC3ONC4OC3H32
_chemical_formula_sum              "C17 O3 N2 H32"
_cell_length_a       30
_cell_length_b       30
_cell_length_c       30
_cell_angle_alpha    90
_cell_angle_beta     90
_cell_angle_gamma    90

_space_group_name_H-M_alt    "P 1"
_space_group_IT_number       1

loop_
  _space_group_symop_operation_xyz
  'x, y, z'

loop_
  _atom_site_type_symbol
  _atom_site_label
  _atom_site_symmetry_multiplicity
  _atom_site_fract_x
  _atom_site_fract_y
  _atom_site_fract_z
  _atom_site_occupancy
  C   C1        1.0  0.20951  0.03147  0.94018  1.0000
  C   C2        1.0  0.18188  0.00356  0.97225  1.0000
  C   C3        1.0  0.13216  0.00625  0.96116  1.0000
  C   C4        1.0  0.10271  0.98078  0.99453  1.0000
  C   C5        1.0  0.11299  0.93063  0.99567  1.0000
  C   C6        1.0  0.07387  0.90300  0.01275  1.0000
  O   O1        1.0  0.04609  0.92886  0.04117  1.0000
  C   C7        1.0  0.02281  0.96284  0.01714  1.0000
  N   N1        1.0  0.00048  0.99207  0.04935  1.0000
  C   C8        1.0  0.02612  0.00868  0.08749  1.0000
  C   C9        1.0  0.04770  0.05411  0.08019  1.0000
  C   C10       1.0  0.95998  0.01300  0.04090  1.0000
  O   O2        1.0  0.94648  0.04511  0.06242  1.0000
  N   N2        1.0  0.93563  0.99503  0.00651  1.0000
  C   C11       1.0  0.89332  0.01502  0.99294  1.0000
  C   C12       1.0  0.85634  0.00568  0.02732  1.0000
  C   C13       1.0  0.80949  0.00355  0.00707  1.0000
  C   C14       1.0  0.80477  0.03307  0.96597  1.0000
  O   O3        1.0  0.81359  0.07825  0.97773  1.0000
  C   C15       1.0  0.83736  0.01944  0.92912  1.0000
  C   C16       1.0  0.88026  0.99796  0.94669  1.0000
  C   C17       1.0  0.05313  0.98821  0.98437  1.0000
  H   H1        1.0  0.24492  0.02905  0.94861  1.0000
  H   H2        1.0  0.20523  0.01997  0.90582  1.0000
  H   H3        1.0  0.19987  0.06662  0.94179  1.0000
  H   H4        1.0  0.19342  0.96895  0.97059  1.0000
  H   H5        1.0  0.18763  0.01533  0.00636  1.0000
  H   H6        1.0  0.12201  0.04140  0.96088  1.0000
  H   H7        1.0  0.12649  0.99344  0.92736  1.0000
  H   H8        1.0  0.10958  0.99410  0.02789  1.0000
  H   H9        1.0  0.12285  0.91807  0.96278  1.0000
  H   H10       1.0  0.14177  0.92524  0.01760  1.0000
  H   H11       1.0  0.05404  0.88979  0.98501  1.0000
  H   H12       1.0  0.08617  0.87431  0.03167  1.0000
  H   H13       1.0  0.99758  0.94565  0.99726  1.0000
  H   H14       1.0  0.05147  0.98430  0.09712  1.0000
  H   H15       1.0  0.00317  0.01138  0.11584  1.0000
  H   H16       1.0  0.02295  0.07994  0.07317  1.0000
  H   H17       1.0  0.06596  0.06412  0.11016  1.0000
  H   H18       1.0  0.07122  0.05378  0.05243  1.0000
  H   H19       1.0  0.93540  0.96142  0.00709  1.0000
  H   H20       1.0  0.89874  0.05116  0.99094  1.0000
  H   H21       1.0  0.85724  0.03182  0.05291  1.0000
  H   H22       1.0  0.86261  0.97431  0.04507  1.0000
  H   H23       1.0  0.78532  0.01342  0.03265  1.0000
  H   H24       1.0  0.80178  0.96897  0.99797  1.0000
  H   H25       1.0  0.77063  0.03179  0.95311  1.0000
  H   H26       1.0  0.79383  0.08629  0.00216  1.0000
  H   H27       1.0  0.82119  0.99547  0.90673  1.0000
  H   H28       1.0  0.84605  0.04862  0.90888  1.0000
  H   H29       1.0  0.90732  0.00365  0.92275  1.0000
  H   H30       1.0  0.87573  0.96164  0.94807  1.0000
  H   H31       1.0  0.04639  0.97564  0.95062  1.0000
  H   H32       1.0  0.04477  0.02377  0.98332  1.0000
