data_image0
_chemical_formula_structural       C8OC9H24
_chemical_formula_sum              "C17 O1 H24"
_cell_length_a       30
_cell_length_b       30
_cell_length_c       30
_cell_angle_alpha    90
_cell_angle_beta     90
_cell_angle_gamma    90

_space_group_name_H-M_alt    "P 1"
_space_group_IT_number       1

loop_
  _space_group_symop_operation_xyz
  'x, y, z'

loop_
  _atom_site_type_symbol
  _atom_site_label
  _atom_site_symmetry_multiplicity
  _atom_site_fract_x
  _atom_site_fract_y
  _atom_site_fract_z
  _atom_site_occupancy
  C   C1        1.0  0.15145  0.08752  0.95026  1.0000
  C   C2        1.0  0.12008  0.05056  0.96513  1.0000
  C   C3        1.0  0.07948  0.06939  0.98965  1.0000
  C   C4        1.0  0.04571  0.03318  0.00323  1.0000
  C   C5        1.0  0.00347  0.05427  0.02271  1.0000
  C   C6        1.0  0.96740  0.01931  0.03205  1.0000
  C   C7        1.0  0.98532  0.97459  0.05026  1.0000
  C   C8        1.0  0.98345  0.93679  0.01534  1.0000
  O   O1        1.0  0.00322  0.89753  0.03334  1.0000
  C   C9        1.0  0.93471  0.92458  0.00184  1.0000
  C   C10       1.0  0.90021  0.90336  0.02308  1.0000
  C   C11       1.0  0.87170  0.91557  0.98733  1.0000
  C   C12       1.0  0.83346  0.93707  0.97987  1.0000
  C   C13       1.0  0.84651  0.96885  0.94535  1.0000
  C   C14       1.0  0.89044  0.96524  0.93533  1.0000
  C   C15       1.0  0.91047  0.92499  0.95694  1.0000
  C   C16       1.0  0.03228  0.98084  0.06977  1.0000
  C   C17       1.0  0.06585  0.99918  0.03602  1.0000
  H   H1        1.0  0.13466  0.11059  0.92753  1.0000
  H   H2        1.0  0.18023  0.07340  0.93282  1.0000
  H   H3        1.0  0.16375  0.10652  0.97888  1.0000
  H   H4        1.0  0.13847  0.02753  0.98668  1.0000
  H   H5        1.0  0.10917  0.03164  0.93584  1.0000
  H   H6        1.0  0.09048  0.08779  0.01929  1.0000
  H   H7        1.0  0.06281  0.09362  0.96789  1.0000
  H   H8        1.0  0.03601  0.01534  0.97277  1.0000
  H   H9        1.0  0.98991  0.07939  0.99987  1.0000
  H   H10       1.0  0.01165  0.07193  0.05370  1.0000
  H   H11       1.0  0.94808  0.01411  0.00152  1.0000
  H   H12       1.0  0.94392  0.03350  0.05624  1.0000
  H   H13       1.0  0.96377  0.96454  0.07816  1.0000
  H   H14       1.0  0.00216  0.94574  0.98533  1.0000
  H   H15       1.0  0.99605  0.87324  0.01315  1.0000
  H   H16       1.0  0.89507  0.89106  0.05675  1.0000
  H   H17       1.0  0.80736  0.94270  0.00399  1.0000
  H   H18       1.0  0.82441  0.99456  0.93319  1.0000
  H   H19       1.0  0.90830  0.98645  0.91238  1.0000
  H   H20       1.0  0.91968  0.89899  0.93298  1.0000
  H   H21       1.0  0.03005  0.00423  0.09786  1.0000
  H   H22       1.0  0.04502  0.94972  0.08406  1.0000
  H   H23       1.0  0.09359  0.01397  0.05472  1.0000
  H   H24       1.0  0.08019  0.97151  0.01687  1.0000
