data_image0
_chemical_formula_structural       C5NC8OC3H21
_chemical_formula_sum              "C16 N1 O1 H21"
_cell_length_a       30
_cell_length_b       30
_cell_length_c       30
_cell_angle_alpha    90
_cell_angle_beta     90
_cell_angle_gamma    90

_space_group_name_H-M_alt    "P 1"
_space_group_IT_number       1

loop_
  _space_group_symop_operation_xyz
  'x, y, z'

loop_
  _atom_site_type_symbol
  _atom_site_label
  _atom_site_symmetry_multiplicity
  _atom_site_fract_x
  _atom_site_fract_y
  _atom_site_fract_z
  _atom_site_occupancy
  C   C1        1.0  0.87638  0.03620  0.05692  1.0000
  C   C2        1.0  0.90290  0.01935  0.01709  1.0000
  C   C3        1.0  0.93502  0.98192  0.03072  1.0000
  C   C4        1.0  0.96285  0.96193  0.99212  1.0000
  C   C5        1.0  0.99293  0.92441  0.00959  1.0000
  N   N1        1.0  0.93065  0.94042  0.95995  1.0000
  C   C6        1.0  0.93767  0.95960  0.92180  1.0000
  C   C7        1.0  0.97177  0.99365  0.92171  1.0000
  C   C8        1.0  0.98853  0.99568  0.96491  1.0000
  C   C9        1.0  0.02257  0.02576  0.97468  1.0000
  C   C10       1.0  0.04393  0.03022  0.01999  1.0000
  C   C11       1.0  0.09248  0.01491  0.01924  1.0000
  C   C12       1.0  0.11564  0.01317  0.06486  1.0000
  C   C13       1.0  0.12510  0.96461  0.05325  1.0000
  O   O1        1.0  0.09663  0.96687  0.01444  1.0000
  C   C14       1.0  0.03733  0.05361  0.93964  1.0000
  C   C15       1.0  0.01942  0.05081  0.89640  1.0000
  C   C16       1.0  0.98604  0.02013  0.88692  1.0000
  H   H1        1.0  0.85644  0.00942  0.07164  1.0000
  H   H2        1.0  0.85370  0.06285  0.04661  1.0000
  H   H3        1.0  0.89852  0.04952  0.08268  1.0000
  H   H4        1.0  0.92136  0.04739  0.00274  1.0000
  H   H5        1.0  0.87956  0.00743  0.99167  1.0000
  H   H6        1.0  0.91542  0.95510  0.04616  1.0000
  H   H7        1.0  0.95708  0.99459  0.05693  1.0000
  H   H8        1.0  0.97299  0.89732  0.02387  1.0000
  H   H9        1.0  0.01315  0.90993  0.98280  1.0000
  H   H10       1.0  0.01559  0.93611  0.03562  1.0000
  H   H11       1.0  0.91895  0.95081  0.89152  1.0000
  H   H12       1.0  0.04218  0.06533  0.03012  1.0000
  H   H13       1.0  0.02541  0.01168  0.04524  1.0000
  H   H14       1.0  0.11288  0.03189  0.99406  1.0000
  H   H15       1.0  0.14512  0.03433  0.06808  1.0000
  H   H16       1.0  0.09394  0.01771  0.09380  1.0000
  H   H17       1.0  0.11308  0.94017  0.07745  1.0000
  H   H18       1.0  0.15956  0.95712  0.04396  1.0000
  H   H19       1.0  0.06348  0.07804  0.94578  1.0000
  H   H20       1.0  0.03190  0.07270  0.87035  1.0000
  H   H21       1.0  0.97186  0.01733  0.85383  1.0000
