data_image0
_chemical_formula_structural       C4NC2SO2C8ONC2NC4NCH32
_chemical_formula_sum              "C21 N4 S1 O3 H32"
_cell_length_a       30
_cell_length_b       30
_cell_length_c       30
_cell_angle_alpha    90
_cell_angle_beta     90
_cell_angle_gamma    90

_space_group_name_H-M_alt    "P 1"
_space_group_IT_number       1

loop_
  _space_group_symop_operation_xyz
  'x, y, z'

loop_
  _atom_site_type_symbol
  _atom_site_label
  _atom_site_symmetry_multiplicity
  _atom_site_fract_x
  _atom_site_fract_y
  _atom_site_fract_z
  _atom_site_occupancy
  C   C1        1.0  0.10172  0.85638  0.99729  1.0000
  C   C2        1.0  0.06040  0.86633  0.02493  1.0000
  C   C3        1.0  0.04758  0.91567  0.02513  1.0000
  C   C4        1.0  0.03428  0.93319  0.97913  1.0000
  N   N1        1.0  0.01475  0.97803  0.98088  1.0000
  C   C5        1.0  0.04565  0.01589  0.98482  1.0000
  C   C6        1.0  0.04982  0.03338  0.03225  1.0000
  S   S1        1.0  0.08162  0.08328  0.03435  1.0000
  O   O1        1.0  0.08722  0.09563  0.08074  1.0000
  O   O2        1.0  0.06214  0.11431  0.00269  1.0000
  C   C7        1.0  0.13505  0.06768  0.01418  1.0000
  C   C8        1.0  0.16316  0.04254  0.04151  1.0000
  C   C9        1.0  0.20503  0.02989  0.02570  1.0000
  C   C10       1.0  0.21914  0.04278  0.98304  1.0000
  C   C11       1.0  0.26392  0.02835  0.96596  1.0000
  C   C12       1.0  0.19054  0.06807  0.95608  1.0000
  C   C13       1.0  0.14863  0.08090  0.97165  1.0000
  C   C14       1.0  0.96844  0.98087  0.98666  1.0000
  O   O3        1.0  0.94580  0.94723  0.99258  1.0000
  N   N2        1.0  0.95160  0.02360  0.98548  1.0000
  C   C15       1.0  0.90792  0.03522  0.99477  1.0000
  C   C16       1.0  0.87426  0.00938  0.01195  1.0000
  N   N3        1.0  0.83757  0.03616  0.01461  1.0000
  C   C17       1.0  0.79375  0.02367  0.03090  1.0000
  C   C18       1.0  0.75863  0.01904  0.99385  1.0000
  C   C19       1.0  0.76906  0.98022  0.96235  1.0000
  C   C20       1.0  0.71252  0.01248  0.01455  1.0000
  N   N4        1.0  0.84528  0.07834  0.00122  1.0000
  C   C21       1.0  0.88813  0.07761  0.98909  1.0000
  H   H1        1.0  0.11097  0.82127  0.00080  1.0000
  H   H2        1.0  0.09598  0.86278  0.96186  1.0000
  H   H3        1.0  0.13000  0.87664  0.00824  1.0000
  H   H4        1.0  0.03244  0.84624  0.01269  1.0000
  H   H5        1.0  0.06665  0.85582  0.05938  1.0000
  H   H6        1.0  0.07547  0.93524  0.03823  1.0000
  H   H7        1.0  0.01982  0.92025  0.04845  1.0000
  H   H8        1.0  0.01016  0.91038  0.96385  1.0000
  H   H9        1.0  0.06306  0.93434  0.95668  1.0000
  H   H10       1.0  0.03442  0.04212  0.96211  1.0000
  H   H11       1.0  0.07822  0.00535  0.97215  1.0000
  H   H12       1.0  0.01721  0.04157  0.04643  1.0000
  H   H13       1.0  0.06552  0.00912  0.05445  1.0000
  H   H14       1.0  0.15308  0.03304  0.07504  1.0000
  H   H15       1.0  0.22691  0.01020  0.04696  1.0000
  H   H16       1.0  0.27616  0.05125  0.94025  1.0000
  H   H17       1.0  0.26161  0.99484  0.95169  1.0000
  H   H18       1.0  0.28855  0.02815  0.99291  1.0000
  H   H19       1.0  0.20097  0.07826  0.92285  1.0000
  H   H20       1.0  0.12719  0.10114  0.95052  1.0000
  H   H21       1.0  0.96988  0.04774  0.97100  1.0000
  H   H22       1.0  0.87311  0.97478  0.02200  1.0000
  H   H23       1.0  0.79729  0.99243  0.04960  1.0000
  H   H24       1.0  0.78396  0.04958  0.05480  1.0000
  H   H25       1.0  0.75780  0.04983  0.97403  1.0000
  H   H26       1.0  0.74273  0.97643  0.93725  1.0000
  H   H27       1.0  0.77180  0.94869  0.98071  1.0000
  H   H28       1.0  0.80040  0.98579  0.94450  1.0000
  H   H29       1.0  0.70407  0.04027  0.03665  1.0000
  H   H30       1.0  0.71106  0.98167  0.03407  1.0000
  H   H31       1.0  0.68682  0.01067  0.98870  1.0000
  H   H32       1.0  0.90308  0.10800  0.97666  1.0000
