data_image0
_chemical_formula_structural       C11NCONC3O2C12OH36
_chemical_formula_sum              "C27 N2 O4 H36"
_cell_length_a       30
_cell_length_b       30
_cell_length_c       30
_cell_angle_alpha    90
_cell_angle_beta     90
_cell_angle_gamma    90

_space_group_name_H-M_alt    "P 1"
_space_group_IT_number       1

loop_
  _space_group_symop_operation_xyz
  'x, y, z'

loop_
  _atom_site_type_symbol
  _atom_site_label
  _atom_site_symmetry_multiplicity
  _atom_site_fract_x
  _atom_site_fract_y
  _atom_site_fract_z
  _atom_site_occupancy
  C   C1        1.0  0.77644  0.06452  0.10367  1.0000
  C   C2        1.0  0.82210  0.04296  0.10804  1.0000
  C   C3        1.0  0.84220  0.03231  0.06238  1.0000
  C   C4        1.0  0.88850  0.01086  0.06731  1.0000
  C   C5        1.0  0.91182  0.99732  0.02240  1.0000
  C   C6        1.0  0.91694  0.03925  0.99260  1.0000
  C   C7        1.0  0.90109  0.04083  0.94847  1.0000
  C   C8        1.0  0.90664  0.07894  0.92225  1.0000
  C   C9        1.0  0.92820  0.11622  0.93943  1.0000
  C   C10       1.0  0.94448  0.11542  0.98283  1.0000
  C   C11       1.0  0.93904  0.07736  0.00910  1.0000
  N   N1        1.0  0.88598  0.96171  0.99916  1.0000
  C   C12       1.0  0.87592  0.92381  0.02206  1.0000
  O   O1        1.0  0.84231  0.92064  0.04497  1.0000
  N   N2        1.0  0.90420  0.88884  0.01685  1.0000
  C   C13       1.0  0.92200  0.87546  0.97372  1.0000
  C   C14       1.0  0.96824  0.89356  0.96399  1.0000
  C   C15       1.0  0.96531  0.93570  0.93680  1.0000
  O   O2        1.0  0.94875  0.93547  0.89927  1.0000
  O   O3        1.0  0.98311  0.97383  0.95377  1.0000
  C   C16       1.0  0.99489  0.97747  0.99903  1.0000
  C   C17       1.0  0.03747  0.98318  0.01196  1.0000
  C   C18       1.0  0.07507  0.98505  0.98166  1.0000
  C   C19       1.0  0.11840  0.99119  0.99224  1.0000
  C   C20       1.0  0.13584  0.99801  0.03897  1.0000
  C   C21       1.0  0.15318  0.99144  0.95473  1.0000
  C   C22       1.0  0.19136  0.95757  0.96183  1.0000
  C   C23       1.0  0.23463  0.97966  0.97682  1.0000
  C   C24       1.0  0.25096  0.01446  0.94333  1.0000
  C   C25       1.0  0.21332  0.03790  0.91817  1.0000
  C   C26       1.0  0.17031  0.03898  0.94519  1.0000
  C   C27       1.0  0.95908  0.97819  0.03424  1.0000
  O   O4        1.0  0.96783  0.96284  0.07145  1.0000
  H   H1        1.0  0.75309  0.04232  0.08652  1.0000
  H   H2        1.0  0.76280  0.07199  0.13668  1.0000
  H   H3        1.0  0.77847  0.09576  0.08492  1.0000
  H   H4        1.0  0.84426  0.06549  0.12639  1.0000
  H   H5        1.0  0.81906  0.01233  0.12772  1.0000
  H   H6        1.0  0.84453  0.06318  0.04303  1.0000
  H   H7        1.0  0.81965  0.00999  0.04437  1.0000
  H   H8        1.0  0.88541  0.98155  0.08901  1.0000
  H   H9        1.0  0.90995  0.03386  0.08604  1.0000
  H   H10       1.0  0.88488  0.01226  0.93310  1.0000
  H   H11       1.0  0.89433  0.07928  0.88815  1.0000
  H   H12       1.0  0.93255  0.14576  0.91889  1.0000
  H   H13       1.0  0.96156  0.14441  0.99627  1.0000
  H   H14       1.0  0.95261  0.07799  0.04274  1.0000
  H   H15       1.0  0.85609  0.97541  0.99161  1.0000
  H   H16       1.0  0.89330  0.86315  0.03595  1.0000
  H   H17       1.0  0.89772  0.88399  0.94779  1.0000
  H   H18       1.0  0.92399  0.83899  0.97505  1.0000
  H   H19       1.0  0.98630  0.86981  0.94278  1.0000
  H   H20       1.0  0.98826  0.89657  0.99420  1.0000
  H   H21       1.0  0.04425  0.98652  0.04739  1.0000
  H   H22       1.0  0.06664  0.98107  0.94652  1.0000
  H   H23       1.0  0.15696  0.02767  0.04075  1.0000
  H   H24       1.0  0.15554  0.96923  0.04959  1.0000
  H   H25       1.0  0.10963  0.00288  0.06376  1.0000
  H   H26       1.0  0.13645  0.98032  0.92404  1.0000
  H   H27       1.0  0.19779  0.94045  0.93009  1.0000
  H   H28       1.0  0.18177  0.93132  0.98537  1.0000
  H   H29       1.0  0.26056  0.95439  0.98174  1.0000
  H   H30       1.0  0.22958  0.99561  0.00931  1.0000
  H   H31       1.0  0.27326  0.99873  0.91901  1.0000
  H   H32       1.0  0.27119  0.03918  0.96112  1.0000
  H   H33       1.0  0.20719  0.02049  0.88659  1.0000
  H   H34       1.0  0.22367  0.07182  0.90944  1.0000
  H   H35       1.0  0.17631  0.05763  0.97602  1.0000
  H   H36       1.0  0.14475  0.05760  0.92680  1.0000
