data_image0
_chemical_formula_structural       C7NOC2NCOC3NH25
_chemical_formula_sum              "C13 N3 O2 H25"
_cell_length_a       30
_cell_length_b       30
_cell_length_c       30
_cell_angle_alpha    90
_cell_angle_beta     90
_cell_angle_gamma    90

_space_group_name_H-M_alt    "P 1"
_space_group_IT_number       1

loop_
  _space_group_symop_operation_xyz
  'x, y, z'

loop_
  _atom_site_type_symbol
  _atom_site_label
  _atom_site_symmetry_multiplicity
  _atom_site_fract_x
  _atom_site_fract_y
  _atom_site_fract_z
  _atom_site_occupancy
  C   C1        1.0  0.14921  0.97136  0.97583  1.0000
  C   C2        1.0  0.12507  0.95783  0.01830  1.0000
  C   C3        1.0  0.10320  0.99693  0.04270  1.0000
  C   C4        1.0  0.06840  0.02321  0.01606  1.0000
  C   C5        1.0  0.02878  0.99460  0.00073  1.0000
  C   C6        1.0  0.99284  0.02185  0.97602  1.0000
  C   C7        1.0  0.97119  0.05625  0.00510  1.0000
  N   N1        1.0  0.95415  0.04725  0.04541  1.0000
  O   O1        1.0  0.93820  0.08853  0.05975  1.0000
  C   C8        1.0  0.94740  0.11812  0.02648  1.0000
  C   C9        1.0  0.93362  0.16464  0.03390  1.0000
  N   N2        1.0  0.96762  0.09998  0.99216  1.0000
  C   C10       1.0  0.95705  0.99348  0.95128  1.0000
  O   O2        1.0  0.97556  0.97364  0.91189  1.0000
  C   C11       1.0  0.93106  0.95799  0.97891  1.0000
  C   C12       1.0  0.88439  0.95199  0.95829  1.0000
  C   C13       1.0  0.95470  0.91238  0.98171  1.0000
  N   N3        1.0  0.93373  0.88164  0.01317  1.0000
  H   H1        1.0  0.16695  0.94270  0.96185  1.0000
  H   H2        1.0  0.17365  0.99763  0.98245  1.0000
  H   H3        1.0  0.12592  0.98335  0.95047  1.0000
  H   H4        1.0  0.10030  0.93213  0.01062  1.0000
  H   H5        1.0  0.14923  0.94231  0.04093  1.0000
  H   H6        1.0  0.08758  0.98422  0.07323  1.0000
  H   H7        1.0  0.12932  0.02016  0.05348  1.0000
  H   H8        1.0  0.08415  0.03901  0.98712  1.0000
  H   H9        1.0  0.05651  0.05041  0.03737  1.0000
  H   H10       1.0  0.04141  0.96875  0.97830  1.0000
  H   H11       1.0  0.01436  0.97787  0.02985  1.0000
  H   H12       1.0  0.01071  0.04021  0.94976  1.0000
  H   H13       1.0  0.95002  0.17827  0.06347  1.0000
  H   H14       1.0  0.94254  0.18544  0.00530  1.0000
  H   H15       1.0  0.89752  0.16668  0.03867  1.0000
  H   H16       1.0  0.93255  0.01752  0.93850  1.0000
  H   H17       1.0  0.00145  0.95592  0.91995  1.0000
  H   H18       1.0  0.92592  0.97080  0.01272  1.0000
  H   H19       1.0  0.88648  0.93810  0.92459  1.0000
  H   H20       1.0  0.86692  0.98400  0.95626  1.0000
  H   H21       1.0  0.86353  0.92989  0.97846  1.0000
  H   H22       1.0  0.95557  0.89634  0.94890  1.0000
  H   H23       1.0  0.98928  0.91626  0.99225  1.0000
  H   H24       1.0  0.90266  0.87326  0.00228  1.0000
  H   H25       1.0  0.92932  0.89707  0.04314  1.0000
