data_image0
_chemical_formula_structural       C7NCONC4NC8OH41
_chemical_formula_sum              "C20 N3 O2 H41"
_cell_length_a       30
_cell_length_b       30
_cell_length_c       30
_cell_angle_alpha    90
_cell_angle_beta     90
_cell_angle_gamma    90

_space_group_name_H-M_alt    "P 1"
_space_group_IT_number       1

loop_
  _space_group_symop_operation_xyz
  'x, y, z'

loop_
  _atom_site_type_symbol
  _atom_site_label
  _atom_site_symmetry_multiplicity
  _atom_site_fract_x
  _atom_site_fract_y
  _atom_site_fract_z
  _atom_site_occupancy
  C   C1        1.0  0.21207  0.06427  0.98507  1.0000
  C   C2        1.0  0.19021  0.07515  0.02956  1.0000
  C   C3        1.0  0.14231  0.09229  0.02486  1.0000
  C   C4        1.0  0.10633  0.05679  0.03252  1.0000
  C   C5        1.0  0.10603  0.01966  0.99757  1.0000
  C   C6        1.0  0.06655  0.98733  0.00313  1.0000
  C   C7        1.0  0.06870  0.96236  0.04864  1.0000
  N   N1        1.0  0.05695  0.91522  0.04787  1.0000
  C   C8        1.0  0.01800  0.89531  0.03648  1.0000
  O   O1        1.0  0.01649  0.85471  0.03184  1.0000
  N   N2        1.0  0.98236  0.92274  0.03107  1.0000
  C   C9        1.0  0.94471  0.90910  0.00363  1.0000
  C   C10       1.0  0.94942  0.92880  0.95511  1.0000
  C   C11       1.0  0.97843  0.89511  0.92865  1.0000
  C   C12       1.0  0.90331  0.92765  0.93199  1.0000
  N   N3        1.0  0.96907  0.97521  0.95844  1.0000
  C   C13       1.0  0.93698  0.01231  0.96453  1.0000
  C   C14       1.0  0.91142  0.01315  0.00889  1.0000
  C   C15       1.0  0.88408  0.05618  0.01338  1.0000
  C   C16       1.0  0.86040  0.06086  0.05871  1.0000
  C   C17       1.0  0.83743  0.10636  0.06155  1.0000
  C   C18       1.0  0.82628  0.02387  0.06688  1.0000
  C   C19       1.0  0.00172  0.98784  0.92350  1.0000
  C   C20       1.0  0.05004  0.96920  0.92550  1.0000
  O   O2        1.0  0.06645  0.95525  0.96788  1.0000
  H   H1        1.0  0.21411  0.09403  0.96404  1.0000
  H   H2        1.0  0.24608  0.05212  0.99051  1.0000
  H   H3        1.0  0.19390  0.03864  0.96669  1.0000
  H   H4        1.0  0.19159  0.04609  0.05168  1.0000
  H   H5        1.0  0.21033  0.10122  0.04545  1.0000
  H   H6        1.0  0.13738  0.10862  0.99248  1.0000
  H   H7        1.0  0.13714  0.11822  0.05022  1.0000
  H   H8        1.0  0.11057  0.04267  0.06598  1.0000
  H   H9        1.0  0.07376  0.07350  0.03238  1.0000
  H   H10       1.0  0.13704  0.00044  0.99905  1.0000
  H   H11       1.0  0.10502  0.03469  0.96430  1.0000
  H   H12       1.0  0.03568  0.00672  0.00259  1.0000
  H   H13       1.0  0.04705  0.97920  0.07278  1.0000
  H   H14       1.0  0.10257  0.96341  0.06221  1.0000
  H   H15       1.0  0.08246  0.89321  0.04669  1.0000
  H   H16       1.0  0.99046  0.95467  0.02474  1.0000
  H   H17       1.0  0.91491  0.92164  0.02036  1.0000
  H   H18       1.0  0.94193  0.87269  0.00302  1.0000
  H   H19       1.0  0.98221  0.90489  0.89370  1.0000
  H   H20       1.0  0.96291  0.86198  0.92834  1.0000
  H   H21       1.0  0.01143  0.89054  0.94334  1.0000
  H   H22       1.0  0.87751  0.94511  0.95091  1.0000
  H   H23       1.0  0.90494  0.94246  0.89863  1.0000
  H   H24       1.0  0.89147  0.89327  0.92805  1.0000
  H   H25       1.0  0.91385  0.01440  0.93630  1.0000
  H   H26       1.0  0.95566  0.04379  0.96407  1.0000
  H   H27       1.0  0.93492  0.01082  0.03678  1.0000
  H   H28       1.0  0.88864  0.98493  0.01094  1.0000
  H   H29       1.0  0.90636  0.08485  0.00882  1.0000
  H   H30       1.0  0.85944  0.05759  0.98637  1.0000
  H   H31       1.0  0.88553  0.05931  0.08526  1.0000
  H   H32       1.0  0.82129  0.11078  0.09400  1.0000
  H   H33       1.0  0.81191  0.10990  0.03565  1.0000
  H   H34       1.0  0.86156  0.13342  0.05743  1.0000
  H   H35       1.0  0.80819  0.02961  0.09807  1.0000
  H   H36       1.0  0.84239  0.99127  0.06970  1.0000
  H   H37       1.0  0.80184  0.02218  0.03981  1.0000
  H   H38       1.0  0.00691  0.02403  0.92510  1.0000
  H   H39       1.0  0.98765  0.98243  0.89018  1.0000
  H   H40       1.0  0.05258  0.94017  0.90352  1.0000
  H   H41       1.0  0.07307  0.99376  0.91134  1.0000
