data_image0
_chemical_formula_structural       C4NC6SC5OH25
_chemical_formula_sum              "C15 N1 S1 O1 H25"
_cell_length_a       30
_cell_length_b       30
_cell_length_c       30
_cell_angle_alpha    90
_cell_angle_beta     90
_cell_angle_gamma    90

_space_group_name_H-M_alt    "P 1"
_space_group_IT_number       1

loop_
  _space_group_symop_operation_xyz
  'x, y, z'

loop_
  _atom_site_type_symbol
  _atom_site_label
  _atom_site_symmetry_multiplicity
  _atom_site_fract_x
  _atom_site_fract_y
  _atom_site_fract_z
  _atom_site_occupancy
  C   C1        1.0  0.99764  0.16578  0.00544  1.0000
  C   C2        1.0  0.98496  0.11673  0.00744  1.0000
  C   C3        1.0  0.02106  0.08913  0.03065  1.0000
  C   C4        1.0  0.00829  0.03976  0.03565  1.0000
  N   N1        1.0  0.99862  0.01679  0.99350  1.0000
  C   C5        1.0  0.03703  0.01341  0.96300  1.0000
  C   C6        1.0  0.07548  0.98518  0.97893  1.0000
  C   C7        1.0  0.08019  0.93937  0.97683  1.0000
  C   C8        1.0  0.12170  0.92380  0.99457  1.0000
  C   C9        1.0  0.13505  0.87599  0.99670  1.0000
  C   C10       1.0  0.14745  0.95912  0.00896  1.0000
  S   S1        1.0  0.12225  0.00951  0.00095  1.0000
  C   C11       1.0  0.97611  0.97357  0.00031  1.0000
  C   C12       1.0  0.92625  0.97768  0.01224  1.0000
  C   C13       1.0  0.90547  0.93282  0.02375  1.0000
  C   C14       1.0  0.85692  0.94133  0.01392  1.0000
  C   C15       1.0  0.85954  0.97020  0.97263  1.0000
  O   O1        1.0  0.90077  0.99426  0.97495  1.0000
  H   H1        1.0  0.97145  0.18492  0.98875  1.0000
  H   H2        1.0  0.00209  0.17952  0.03895  1.0000
  H   H3        1.0  0.02871  0.17049  0.98689  1.0000
  H   H4        1.0  0.97958  0.10459  0.97342  1.0000
  H   H5        1.0  0.95329  0.11327  0.02533  1.0000
  H   H6        1.0  0.02676  0.10274  0.06413  1.0000
  H   H7        1.0  0.05273  0.09261  0.01283  1.0000
  H   H8        1.0  0.03437  0.02234  0.05441  1.0000
  H   H9        1.0  0.97878  0.03904  0.05717  1.0000
  H   H10       1.0  0.02532  0.99969  0.93111  1.0000
  H   H11       1.0  0.04875  0.04688  0.95411  1.0000
  H   H12       1.0  0.05475  0.91770  0.96311  1.0000
  H   H13       1.0  0.10931  0.85632  0.01354  1.0000
  H   H14       1.0  0.13965  0.86265  0.96303  1.0000
  H   H15       1.0  0.16634  0.87168  0.01503  1.0000
  H   H16       1.0  0.18034  0.95785  0.02368  1.0000
  H   H17       1.0  0.97767  0.95440  0.96918  1.0000
  H   H18       1.0  0.99345  0.95417  0.02601  1.0000
  H   H19       1.0  0.92093  0.00079  0.04000  1.0000
  H   H20       1.0  0.91170  0.92280  0.05824  1.0000
  H   H21       1.0  0.91800  0.90650  0.00169  1.0000
  H   H22       1.0  0.84182  0.96015  0.04137  1.0000
  H   H23       1.0  0.83741  0.91098  0.00885  1.0000
  H   H24       1.0  0.83173  0.99364  0.97020  1.0000
  H   H25       1.0  0.86028  0.94986  0.94233  1.0000
