data_image0
_chemical_formula_structural       C4SO2NC8NC2H28
_chemical_formula_sum              "C14 S1 O2 N2 H28"
_cell_length_a       30
_cell_length_b       30
_cell_length_c       30
_cell_angle_alpha    90
_cell_angle_beta     90
_cell_angle_gamma    90

_space_group_name_H-M_alt    "P 1"
_space_group_IT_number       1

loop_
  _space_group_symop_operation_xyz
  'x, y, z'

loop_
  _atom_site_type_symbol
  _atom_site_label
  _atom_site_symmetry_multiplicity
  _atom_site_fract_x
  _atom_site_fract_y
  _atom_site_fract_z
  _atom_site_occupancy
  C   C1        1.0  0.21855  0.01133  0.99369  1.0000
  C   C2        1.0  0.16872  0.01674  0.98594  1.0000
  C   C3        1.0  0.14265  0.97705  0.00448  1.0000
  C   C4        1.0  0.09303  0.97821  0.99319  1.0000
  S   S1        1.0  0.06291  0.01999  0.02364  1.0000
  O   O1        1.0  0.07319  0.06325  0.00490  1.0000
  O   O2        1.0  0.06848  0.01132  0.07078  1.0000
  N   N1        1.0  0.00942  0.00794  0.01008  1.0000
  C   C5        1.0  0.99402  0.01990  0.96468  1.0000
  C   C6        1.0  0.96239  0.05975  0.96769  1.0000
  C   C7        1.0  0.91226  0.04881  0.96813  1.0000
  C   C8        1.0  0.88599  0.09249  0.97285  1.0000
  C   C9        1.0  0.89679  0.01656  0.00491  1.0000
  C   C10       1.0  0.91879  0.01579  0.05132  1.0000
  C   C11       1.0  0.93878  0.97034  0.03824  1.0000
  C   C12       1.0  0.98928  0.96724  0.02969  1.0000
  N   N2        1.0  0.91242  0.97050  0.99641  1.0000
  C   C13       1.0  0.87496  0.93904  0.99890  1.0000
  C   C14       1.0  0.89069  0.89170  0.98931  1.0000
  H   H1        1.0  0.22602  0.00873  0.02931  1.0000
  H   H2        1.0  0.23121  0.98141  0.97709  1.0000
  H   H3        1.0  0.23659  0.04012  0.98040  1.0000
  H   H4        1.0  0.16249  0.02014  0.95010  1.0000
  H   H5        1.0  0.15787  0.04768  0.00191  1.0000
  H   H6        1.0  0.14734  0.97511  0.04067  1.0000
  H   H7        1.0  0.15662  0.94633  0.99038  1.0000
  H   H8        1.0  0.07834  0.94607  0.00225  1.0000
  H   H9        1.0  0.08777  0.98404  0.95759  1.0000
  H   H10       1.0  0.02272  0.02971  0.94429  1.0000
  H   H11       1.0  0.97946  0.99149  0.94706  1.0000
  H   H12       1.0  0.96845  0.08066  0.93823  1.0000
  H   H13       1.0  0.97105  0.08060  0.99648  1.0000
  H   H14       1.0  0.90336  0.03451  0.93561  1.0000
  H   H15       1.0  0.85008  0.08645  0.97019  1.0000
  H   H16       1.0  0.89521  0.11622  0.94668  1.0000
  H   H17       1.0  0.89217  0.10818  0.00524  1.0000
  H   H18       1.0  0.86027  0.01900  0.00786  1.0000
  H   H19       1.0  0.94218  0.04261  0.05905  1.0000
  H   H20       1.0  0.89472  0.01367  0.07875  1.0000
  H   H21       1.0  0.92962  0.94396  0.06197  1.0000
  H   H22       1.0  0.99665  0.93845  0.00839  1.0000
  H   H23       1.0  0.00499  0.96045  0.06196  1.0000
  H   H24       1.0  0.85036  0.94788  0.97333  1.0000
  H   H25       1.0  0.85773  0.94015  0.03116  1.0000
  H   H26       1.0  0.86223  0.86887  0.98924  1.0000
  H   H27       1.0  0.90681  0.88958  0.95662  1.0000
  H   H28       1.0  0.91435  0.87996  0.01449  1.0000
