data_image0
_chemical_formula_structural       C4NCOCNC4NC7ONC2OH30
_chemical_formula_sum              "C19 N4 O3 H30"
_cell_length_a       30
_cell_length_b       30
_cell_length_c       30
_cell_angle_alpha    90
_cell_angle_beta     90
_cell_angle_gamma    90

_space_group_name_H-M_alt    "P 1"
_space_group_IT_number       1

loop_
  _space_group_symop_operation_xyz
  'x, y, z'

loop_
  _atom_site_type_symbol
  _atom_site_label
  _atom_site_symmetry_multiplicity
  _atom_site_fract_x
  _atom_site_fract_y
  _atom_site_fract_z
  _atom_site_occupancy
  C   C1        1.0  0.14844  0.07219  0.95288  1.0000
  C   C2        1.0  0.11072  0.08576  0.98392  1.0000
  C   C3        1.0  0.07621  0.04896  0.99136  1.0000
  C   C4        1.0  0.09484  0.00859  0.01632  1.0000
  N   N1        1.0  0.06098  0.97450  0.02466  1.0000
  C   C5        1.0  0.03380  0.97993  0.06204  1.0000
  O   O1        1.0  0.03599  0.01360  0.08568  1.0000
  C   C6        1.0  0.00135  0.94217  0.07428  1.0000
  N   N2        1.0  0.96050  0.93867  0.04719  1.0000
  C   C7        1.0  0.96829  0.92064  0.00260  1.0000
  C   C8        1.0  0.98386  0.95584  0.97077  1.0000
  C   C9        1.0  0.96536  0.99668  0.97019  1.0000
  C   C10       1.0  0.92963  0.00943  0.00368  1.0000
  N   N3        1.0  0.88466  0.01403  0.98242  1.0000
  C   C11       1.0  0.87981  0.05207  0.95211  1.0000
  C   C12       1.0  0.86919  0.97370  0.95940  1.0000
  C   C13       1.0  0.94323  0.05300  0.02803  1.0000
  C   C14       1.0  0.91626  0.05240  0.07091  1.0000
  C   C15       1.0  0.92306  0.00511  0.08788  1.0000
  C   C16       1.0  0.92768  0.97567  0.04577  1.0000
  C   C17       1.0  0.02253  0.94572  0.94152  1.0000
  O   O2        1.0  0.02106  0.95400  0.90148  1.0000
  N   N4        1.0  0.05884  0.92615  0.96300  1.0000
  C   C18       1.0  0.08730  0.89716  0.93689  1.0000
  C   C19       1.0  0.07135  0.93268  0.00767  1.0000
  O   O3        1.0  0.09375  0.90562  0.02882  1.0000
  H   H1        1.0  0.16992  0.10087  0.94602  1.0000
  H   H2        1.0  0.13545  0.05993  0.92106  1.0000
  H   H3        1.0  0.16924  0.04614  0.96768  1.0000
  H   H4        1.0  0.12458  0.09652  0.01597  1.0000
  H   H5        1.0  0.09375  0.11475  0.96949  1.0000
  H   H6        1.0  0.06250  0.03840  0.95919  1.0000
  H   H7        1.0  0.04847  0.06326  0.01024  1.0000
  H   H8        1.0  0.12206  0.99369  0.99701  1.0000
  H   H9        1.0  0.10913  0.01916  0.04827  1.0000
  H   H10       1.0  0.01924  0.91031  0.07397  1.0000
  H   H11       1.0  0.99232  0.94621  0.10946  1.0000
  H   H12       1.0  0.93720  0.90628  0.98973  1.0000
  H   H13       1.0  0.99087  0.89197  0.00430  1.0000
  H   H14       1.0  0.97680  0.02187  0.94683  1.0000
  H   H15       1.0  0.88207  0.08386  0.96975  1.0000
  H   H16       1.0  0.90425  0.05168  0.92502  1.0000
  H   H17       1.0  0.84655  0.05228  0.93694  1.0000
  H   H18       1.0  0.83448  0.97788  0.94872  1.0000
  H   H19       1.0  0.86907  0.94441  0.98103  1.0000
  H   H20       1.0  0.88901  0.96608  0.92969  1.0000
  H   H21       1.0  0.93802  0.08362  0.00904  1.0000
  H   H22       1.0  0.97875  0.05272  0.03627  1.0000
  H   H23       1.0  0.92802  0.07724  0.09487  1.0000
  H   H24       1.0  0.88091  0.05885  0.06436  1.0000
  H   H25       1.0  0.89526  0.99427  0.10893  1.0000
  H   H26       1.0  0.95274  0.00475  0.10892  1.0000
  H   H27       1.0  0.89562  0.95811  0.04405  1.0000
  H   H28       1.0  0.12062  0.91197  0.93516  1.0000
  H   H29       1.0  0.07448  0.89214  0.90314  1.0000
  H   H30       1.0  0.08995  0.86473  0.95343  1.0000
