data_image0
_chemical_formula_structural       C6NCSCNC3SCH24
_chemical_formula_sum              "C12 N2 S2 H24"
_cell_length_a       30
_cell_length_b       30
_cell_length_c       30
_cell_angle_alpha    90
_cell_angle_beta     90
_cell_angle_gamma    90

_space_group_name_H-M_alt    "P 1"
_space_group_IT_number       1

loop_
  _space_group_symop_operation_xyz
  'x, y, z'

loop_
  _atom_site_type_symbol
  _atom_site_label
  _atom_site_symmetry_multiplicity
  _atom_site_fract_x
  _atom_site_fract_y
  _atom_site_fract_z
  _atom_site_occupancy
  C   C1        1.0  0.80684  0.01474  0.01298  1.0000
  C   C2        1.0  0.84620  0.04474  0.02397  1.0000
  C   C3        1.0  0.89058  0.02794  0.00513  1.0000
  C   C4        1.0  0.90561  0.98376  0.02567  1.0000
  C   C5        1.0  0.95216  0.96890  0.01130  1.0000
  C   C6        1.0  0.96526  0.96816  0.96163  1.0000
  N   N1        1.0  0.00934  0.98288  0.97637  1.0000
  C   C7        1.0  0.04868  0.98855  0.95335  1.0000
  S   S1        1.0  0.05306  0.96957  0.90027  1.0000
  C   C8        1.0  0.09047  0.00891  0.97910  1.0000
  N   N2        1.0  0.07458  0.04786  0.00546  1.0000
  C   C9        1.0  0.10696  0.97125  0.01090  1.0000
  C   C10       1.0  0.14354  0.98247  0.04423  1.0000
  C   C11       1.0  0.12797  0.02508  0.94649  1.0000
  S   S2        1.0  0.16825  0.06568  0.96848  1.0000
  C   C12       1.0  0.99285  0.99934  0.01906  1.0000
  H   H1        1.0  0.80975  0.98231  0.02939  1.0000
  H   H2        1.0  0.80415  0.00930  0.97701  1.0000
  H   H3        1.0  0.77580  0.03014  0.02443  1.0000
  H   H4        1.0  0.83965  0.07796  0.01019  1.0000
  H   H5        1.0  0.84876  0.04868  0.06021  1.0000
  H   H6        1.0  0.91569  0.05372  0.01120  1.0000
  H   H7        1.0  0.88765  0.02459  0.96888  1.0000
  H   H8        1.0  0.90488  0.98644  0.06213  1.0000
  H   H9        1.0  0.88189  0.95749  0.01661  1.0000
  H   H10       1.0  0.95800  0.93594  0.02653  1.0000
  H   H11       1.0  0.96451  0.93504  0.94647  1.0000
  H   H12       1.0  0.94922  0.99251  0.93979  1.0000
  H   H13       1.0  0.06151  0.07076  0.98391  1.0000
  H   H14       1.0  0.10195  0.06355  0.01850  1.0000
  H   H15       1.0  0.11842  0.94294  0.99071  1.0000
  H   H16       1.0  0.07878  0.95819  0.03017  1.0000
  H   H17       1.0  0.13572  0.01216  0.06385  1.0000
  H   H18       1.0  0.17569  0.98696  0.02782  1.0000
  H   H19       1.0  0.14760  0.95472  0.06762  1.0000
  H   H20       1.0  0.14695  0.99681  0.93330  1.0000
  H   H21       1.0  0.11290  0.04253  0.91817  1.0000
  H   H22       1.0  0.19898  0.03611  0.98180  1.0000
  H   H23       1.0  0.01278  0.99023  0.04811  1.0000
  H   H24       1.0  0.98641  0.03518  0.01881  1.0000
