data_image0
_chemical_formula_structural       C4N2C3ONC5N2C8H25
_chemical_formula_sum              "C20 N5 O1 H25"
_cell_length_a       30
_cell_length_b       30
_cell_length_c       30
_cell_angle_alpha    90
_cell_angle_beta     90
_cell_angle_gamma    90

_space_group_name_H-M_alt    "P 1"
_space_group_IT_number       1

loop_
  _space_group_symop_operation_xyz
  'x, y, z'

loop_
  _atom_site_type_symbol
  _atom_site_label
  _atom_site_symmetry_multiplicity
  _atom_site_fract_x
  _atom_site_fract_y
  _atom_site_fract_z
  _atom_site_occupancy
  C   C1        1.0  0.19937  0.94434  0.09568  1.0000
  C   C2        1.0  0.19717  0.91929  0.05166  1.0000
  C   C3        1.0  0.16139  0.93709  0.02001  1.0000
  C   C4        1.0  0.17075  0.98445  0.00381  1.0000
  N   N1        1.0  0.13807  0.99917  0.97111  1.0000
  N   N2        1.0  0.14872  0.99622  0.92769  1.0000
  C   C5        1.0  0.11297  0.01223  0.90679  1.0000
  C   C6        1.0  0.07828  0.02404  0.93635  1.0000
  C   C7        1.0  0.03485  0.04148  0.92313  1.0000
  O   O1        1.0  0.03089  0.06303  0.88868  1.0000
  N   N3        1.0  0.00068  0.02932  0.95153  1.0000
  C   C8        1.0  0.95540  0.04181  0.94922  1.0000
  C   C9        1.0  0.93866  0.07263  0.91874  1.0000
  C   C10       1.0  0.89359  0.08404  0.91933  1.0000
  C   C11       1.0  0.86488  0.06446  0.95021  1.0000
  C   C12       1.0  0.88079  0.03279  0.98078  1.0000
  N   N4        1.0  0.85008  0.01348  0.01175  1.0000
  N   N5        1.0  0.80943  0.03311  0.01704  1.0000
  C   C13       1.0  0.78943  0.01105  0.04998  1.0000
  C   C14       1.0  0.74457  0.02477  0.06543  1.0000
  C   C15       1.0  0.81562  0.97542  0.06508  1.0000
  C   C16       1.0  0.85376  0.97619  0.03926  1.0000
  C   C17       1.0  0.89024  0.94281  0.03915  1.0000
  C   C18       1.0  0.92629  0.02220  0.98031  1.0000
  C   C19       1.0  0.09618  0.01651  0.97854  1.0000
  C   C20       1.0  0.07824  0.02505  0.02397  1.0000
  H   H1        1.0  0.16685  0.94466  0.11221  1.0000
  H   H2        1.0  0.22326  0.92823  0.11807  1.0000
  H   H3        1.0  0.21023  0.97882  0.09092  1.0000
  H   H4        1.0  0.19001  0.88414  0.05865  1.0000
  H   H5        1.0  0.22986  0.92038  0.03538  1.0000
  H   H6        1.0  0.15935  0.91469  0.99115  1.0000
  H   H7        1.0  0.12873  0.93562  0.03639  1.0000
  H   H8        1.0  0.20367  0.98637  0.98803  1.0000
  H   H9        1.0  0.17055  0.00854  0.03116  1.0000
  H   H10       1.0  0.11302  0.01420  0.87073  1.0000
  H   H11       1.0  0.00883  0.00702  0.97538  1.0000
  H   H12       1.0  0.95982  0.08891  0.89432  1.0000
  H   H13       1.0  0.88082  0.10833  0.89565  1.0000
  H   H14       1.0  0.82986  0.07404  0.94970  1.0000
  H   H15       1.0  0.71995  0.02014  0.03889  1.0000
  H   H16       1.0  0.73398  0.00505  0.09425  1.0000
  H   H17       1.0  0.74453  0.05992  0.07524  1.0000
  H   H18       1.0  0.80731  0.95122  0.09047  1.0000
  H   H19       1.0  0.91900  0.95487  0.05804  1.0000
  H   H20       1.0  0.90039  0.93403  0.00525  1.0000
  H   H21       1.0  0.87919  0.91185  0.05512  1.0000
  H   H22       1.0  0.94034  0.99972  0.00471  1.0000
  H   H23       1.0  0.10415  0.03630  0.04700  1.0000
  H   H24       1.0  0.06314  0.99472  0.03750  1.0000
  H   H25       1.0  0.05284  0.05123  0.02338  1.0000
