data_image0
_chemical_formula_structural       C10FC2NC2OH20
_chemical_formula_sum              "C14 F1 N1 O1 H20"
_cell_length_a       30
_cell_length_b       30
_cell_length_c       30
_cell_angle_alpha    90
_cell_angle_beta     90
_cell_angle_gamma    90

_space_group_name_H-M_alt    "P 1"
_space_group_IT_number       1

loop_
  _space_group_symop_operation_xyz
  'x, y, z'

loop_
  _atom_site_type_symbol
  _atom_site_label
  _atom_site_symmetry_multiplicity
  _atom_site_fract_x
  _atom_site_fract_y
  _atom_site_fract_z
  _atom_site_occupancy
  C   C1        1.0  0.13333  0.94275  0.00122  1.0000
  C   C2        1.0  0.09585  0.95999  0.03066  1.0000
  C   C3        1.0  0.06293  0.98858  0.00419  1.0000
  C   C4        1.0  0.02523  0.00564  0.03419  1.0000
  C   C5        1.0  0.99031  0.03537  0.01092  1.0000
  C   C6        1.0  0.96602  0.01290  0.97141  1.0000
  C   C7        1.0  0.93848  0.97280  0.98451  1.0000
  C   C8        1.0  0.89915  0.97844  0.00925  1.0000
  C   C9        1.0  0.87367  0.94158  0.02170  1.0000
  C   C10       1.0  0.88742  0.89912  0.00934  1.0000
  F   F1        1.0  0.86298  0.86372  0.02129  1.0000
  C   C11       1.0  0.92613  0.89283  0.98470  1.0000
  C   C12       1.0  0.95167  0.92965  0.97220  1.0000
  N   N1        1.0  0.01043  0.07762  0.99708  1.0000
  C   C13       1.0  0.98517  0.11566  0.99216  1.0000
  C   C14       1.0  0.01070  0.15503  0.97442  1.0000
  O   O1        1.0  0.94526  0.11772  0.00077  1.0000
  H   H1        1.0  0.12023  0.92209  0.97414  1.0000
  H   H2        1.0  0.15645  0.92243  0.02080  1.0000
  H   H3        1.0  0.15215  0.97034  0.98652  1.0000
  H   H4        1.0  0.07838  0.93161  0.04565  1.0000
  H   H5        1.0  0.11014  0.97959  0.05799  1.0000
  H   H6        1.0  0.04934  0.96864  0.97682  1.0000
  H   H7        1.0  0.08083  0.01666  0.98921  1.0000
  H   H8        1.0  0.04000  0.02460  0.06180  1.0000
  H   H9        1.0  0.00832  0.97703  0.04944  1.0000
  H   H10       1.0  0.96531  0.04388  0.03628  1.0000
  H   H11       1.0  0.94345  0.03690  0.95542  1.0000
  H   H12       1.0  0.98991  0.00394  0.94521  1.0000
  H   H13       1.0  0.88814  0.01169  0.01881  1.0000
  H   H14       1.0  0.84325  0.94575  0.04081  1.0000
  H   H15       1.0  0.93611  0.85935  0.97534  1.0000
  H   H16       1.0  0.98183  0.92440  0.95279  1.0000
  H   H17       1.0  0.04089  0.07694  0.98264  1.0000
  H   H18       1.0  0.00272  0.15952  0.93916  1.0000
  H   H19       1.0  0.04668  0.15039  0.97804  1.0000
  H   H20       1.0  0.00116  0.18484  0.99310  1.0000
