data_image0
_chemical_formula_structural       C6OC2NC2SH17
_chemical_formula_sum              "C10 O1 N1 S1 H17"
_cell_length_a       30
_cell_length_b       30
_cell_length_c       30
_cell_angle_alpha    90
_cell_angle_beta     90
_cell_angle_gamma    90

_space_group_name_H-M_alt    "P 1"
_space_group_IT_number       1

loop_
  _space_group_symop_operation_xyz
  'x, y, z'

loop_
  _atom_site_type_symbol
  _atom_site_label
  _atom_site_symmetry_multiplicity
  _atom_site_fract_x
  _atom_site_fract_y
  _atom_site_fract_z
  _atom_site_occupancy
  C   C1        1.0  0.86708  0.95631  0.95438  1.0000
  C   C2        1.0  0.89374  0.97938  0.99084  1.0000
  C   C3        1.0  0.94134  0.98958  0.97543  1.0000
  C   C4        1.0  0.97121  0.00915  0.01261  1.0000
  C   C5        1.0  0.95500  0.05561  0.02657  1.0000
  C   C6        1.0  0.02070  0.00956  0.99748  1.0000
  O   O1        1.0  0.02618  0.03984  0.96101  1.0000
  C   C7        1.0  0.05258  0.02329  0.03520  1.0000
  C   C8        1.0  0.09892  0.00646  0.02660  1.0000
  N   N1        1.0  0.11189  0.96530  0.03488  1.0000
  C   C9        1.0  0.15623  0.96048  0.02351  1.0000
  C   C10       1.0  0.17663  0.99805  0.00677  1.0000
  S   S1        1.0  0.13924  0.04116  0.00514  1.0000
  H   H1        1.0  0.88247  0.92458  0.94499  1.0000
  H   H2        1.0  0.86486  0.97725  0.92457  1.0000
  H   H3        1.0  0.83317  0.94944  0.96595  1.0000
  H   H4        1.0  0.89456  0.95795  0.02041  1.0000
  H   H5        1.0  0.87644  0.01015  0.00010  1.0000
  H   H6        1.0  0.94004  0.01248  0.94695  1.0000
  H   H7        1.0  0.95643  0.95854  0.96329  1.0000
  H   H8        1.0  0.96874  0.98709  0.04172  1.0000
  H   H9        1.0  0.95469  0.07871  0.99831  1.0000
  H   H10       1.0  0.92124  0.05425  0.04030  1.0000
  H   H11       1.0  0.97622  0.06984  0.05259  1.0000
  H   H12       1.0  0.02968  0.97617  0.98549  1.0000
  H   H13       1.0  0.01328  0.02590  0.93473  1.0000
  H   H14       1.0  0.05300  0.05961  0.03930  1.0000
  H   H15       1.0  0.04151  0.00878  0.06689  1.0000
  H   H16       1.0  0.17225  0.92847  0.02817  1.0000
  H   H17       1.0  0.21068  0.00213  0.99580  1.0000
