data_image0
_chemical_formula_structural       C4ClC2NC5ClCClC2NH15
_chemical_formula_sum              "C14 Cl3 N2 H15"
_cell_length_a       30
_cell_length_b       30
_cell_length_c       30
_cell_angle_alpha    90
_cell_angle_beta     90
_cell_angle_gamma    90

_space_group_name_H-M_alt    "P 1"
_space_group_IT_number       1

loop_
  _space_group_symop_operation_xyz
  'x, y, z'

loop_
  _atom_site_type_symbol
  _atom_site_label
  _atom_site_symmetry_multiplicity
  _atom_site_fract_x
  _atom_site_fract_y
  _atom_site_fract_z
  _atom_site_occupancy
  C   C1        1.0  0.08637  0.00635  0.93203  1.0000
  C   C2        1.0  0.12321  0.00771  0.96697  1.0000
  C   C3        1.0  0.11079  0.03612  0.00779  1.0000
  C   C4        1.0  0.09439  0.01090  0.04926  1.0000
  Cl  Cl1       1.0  0.13735  0.97636  0.07234  1.0000
  C   C5        1.0  0.05273  0.98430  0.04239  1.0000
  C   C6        1.0  0.00958  0.99533  0.05417  1.0000
  N   N1        1.0  0.98389  0.96032  0.04027  1.0000
  C   C7        1.0  0.93597  0.95588  0.04540  1.0000
  C   C8        1.0  0.91115  0.98614  0.01373  1.0000
  C   C9        1.0  0.88747  0.02302  0.02986  1.0000
  C   C10       1.0  0.86473  0.05123  0.00053  1.0000
  C   C11       1.0  0.86538  0.04299  0.95468  1.0000
  Cl  Cl2       1.0  0.83657  0.07935  0.92052  1.0000
  C   C12       1.0  0.88888  0.00630  0.93817  1.0000
  Cl  Cl3       1.0  0.89126  0.99392  0.88201  1.0000
  C   C13       1.0  0.91155  0.97805  0.96761  1.0000
  C   C14       1.0  0.01150  0.92946  0.02161  1.0000
  N   N2        1.0  0.05303  0.94311  0.02190  1.0000
  H   H1        1.0  0.05550  0.99238  0.94533  1.0000
  H   H2        1.0  0.09673  0.98603  0.90349  1.0000
  H   H3        1.0  0.07913  0.03990  0.91956  1.0000
  H   H4        1.0  0.13242  0.97370  0.97646  1.0000
  H   H5        1.0  0.15275  0.02241  0.95113  1.0000
  H   H6        1.0  0.14053  0.05516  0.01755  1.0000
  H   H7        1.0  0.08574  0.06109  0.99824  1.0000
  H   H8        1.0  0.08775  0.03574  0.07526  1.0000
  H   H9        1.0  0.99570  0.02432  0.07043  1.0000
  H   H10       1.0  0.92813  0.96348  0.08026  1.0000
  H   H11       1.0  0.92671  0.92106  0.03943  1.0000
  H   H12       1.0  0.88661  0.03035  0.06539  1.0000
  H   H13       1.0  0.84663  0.07979  0.01365  1.0000
  H   H14       1.0  0.92991  0.94973  0.95434  1.0000
  H   H15       1.0  0.99997  0.89801  0.00826  1.0000
