data_image0
_chemical_formula_structural       C4NCOCN2C3NCNSO2C5ClCH18
_chemical_formula_sum              "C16 N5 O3 S1 Cl1 H18"
_cell_length_a       30
_cell_length_b       30
_cell_length_c       30
_cell_angle_alpha    90
_cell_angle_beta     90
_cell_angle_gamma    90

_space_group_name_H-M_alt    "P 1"
_space_group_IT_number       1

loop_
  _space_group_symop_operation_xyz
  'x, y, z'

loop_
  _atom_site_type_symbol
  _atom_site_label
  _atom_site_symmetry_multiplicity
  _atom_site_fract_x
  _atom_site_fract_y
  _atom_site_fract_z
  _atom_site_occupancy
  C   C1        1.0  0.10250  0.12845  0.98116  1.0000
  C   C2        1.0  0.09828  0.09276  0.01689  1.0000
  C   C3        1.0  0.05457  0.06698  0.01244  1.0000
  C   C4        1.0  0.05048  0.03110  0.04846  1.0000
  N   N1        1.0  0.00848  0.00568  0.04187  1.0000
  C   C5        1.0  0.96677  0.02704  0.04981  1.0000
  O   O1        1.0  0.96324  0.05709  0.07737  1.0000
  C   C6        1.0  0.93003  0.01441  0.01975  1.0000
  N   N2        1.0  0.93682  0.99306  0.98064  1.0000
  N   N3        1.0  0.89553  0.98755  0.96375  1.0000
  C   C7        1.0  0.89008  0.96399  0.92205  1.0000
  C   C8        1.0  0.86263  0.00608  0.98917  1.0000
  C   C9        1.0  0.81666  0.00556  0.97829  1.0000
  N   N4        1.0  0.77930  0.00492  0.96834  1.0000
  C   C10       1.0  0.88381  0.02413  0.02553  1.0000
  N   N5        1.0  0.86435  0.04610  0.05953  1.0000
  S   S1        1.0  0.01149  0.95112  0.05710  1.0000
  O   O2        1.0  0.03940  0.94834  0.09646  1.0000
  O   O3        1.0  0.96770  0.93092  0.05706  1.0000
  C   C11       1.0  0.04201  0.92699  0.01225  1.0000
  C   C12       1.0  0.08742  0.91751  0.01720  1.0000
  C   C13       1.0  0.11077  0.89794  0.98205  1.0000
  C   C14       1.0  0.08869  0.88753  0.94242  1.0000
  C   C15       1.0  0.04323  0.89640  0.93814  1.0000
  Cl  Cl1       1.0  0.01605  0.88311  0.88941  1.0000
  C   C16       1.0  0.01961  0.91583  0.97300  1.0000
  H   H1        1.0  0.07527  0.15262  0.98353  1.0000
  H   H2        1.0  0.10184  0.11368  0.94779  1.0000
  H   H3        1.0  0.13399  0.14646  0.98495  1.0000
  H   H4        1.0  0.12658  0.06980  0.01427  1.0000
  H   H5        1.0  0.10010  0.10848  0.04983  1.0000
  H   H6        1.0  0.05277  0.05136  0.97941  1.0000
  H   H7        1.0  0.02645  0.09024  0.01458  1.0000
  H   H8        1.0  0.05073  0.04613  0.08176  1.0000
  H   H9        1.0  0.07959  0.00924  0.04611  1.0000
  H   H10       1.0  0.92283  0.95544  0.90855  1.0000
  H   H11       1.0  0.87101  0.93363  0.92848  1.0000
  H   H12       1.0  0.87248  0.98569  0.89868  1.0000
  H   H13       1.0  0.88287  0.06188  0.08338  1.0000
  H   H14       1.0  0.83160  0.05488  0.05996  1.0000
  H   H15       1.0  0.10476  0.92505  0.04816  1.0000
  H   H16       1.0  0.14610  0.89056  0.98558  1.0000
  H   H17       1.0  0.10700  0.87223  0.91514  1.0000
  H   H18       1.0  0.98412  0.92205  0.96970  1.0000
