data_image0
_chemical_formula_structural       C6SC8O2COC2NCOCOC3H27
_chemical_formula_sum              "C22 S1 O5 N1 H27"
_cell_length_a       30
_cell_length_b       30
_cell_length_c       30
_cell_angle_alpha    90
_cell_angle_beta     90
_cell_angle_gamma    90

_space_group_name_H-M_alt    "P 1"
_space_group_IT_number       1

loop_
  _space_group_symop_operation_xyz
  'x, y, z'

loop_
  _atom_site_type_symbol
  _atom_site_label
  _atom_site_symmetry_multiplicity
  _atom_site_fract_x
  _atom_site_fract_y
  _atom_site_fract_z
  _atom_site_occupancy
  C   C1        1.0  0.97076  0.86645  0.05903  1.0000
  C   C2        1.0  0.97830  0.91215  0.03827  1.0000
  C   C3        1.0  0.93550  0.92999  0.01693  1.0000
  C   C4        1.0  0.93827  0.97747  0.99588  1.0000
  C   C5        1.0  0.97395  0.97822  0.95686  1.0000
  C   C6        1.0  0.02093  0.99579  0.96994  1.0000
  S   S1        1.0  0.05985  0.97712  0.92634  1.0000
  C   C7        1.0  0.11091  0.98560  0.95281  1.0000
  C   C8        1.0  0.15260  0.98759  0.93332  1.0000
  C   C9        1.0  0.18386  0.99468  0.96809  1.0000
  C   C10       1.0  0.23035  0.99985  0.97093  1.0000
  C   C11       1.0  0.24960  0.00655  0.01301  1.0000
  C   C12       1.0  0.22336  0.00807  0.05148  1.0000
  C   C13       1.0  0.17706  0.00296  0.04930  1.0000
  C   C14       1.0  0.15896  0.99637  0.00706  1.0000
  O   O1        1.0  0.11494  0.99064  0.99788  1.0000
  O   O2        1.0  0.02574  0.04393  0.97505  1.0000
  C   C15       1.0  0.99845  0.07254  0.99688  1.0000
  O   O3        1.0  0.00928  0.11059  0.00668  1.0000
  C   C16       1.0  0.95298  0.05575  0.00353  1.0000
  C   C17       1.0  0.92222  0.06915  0.97343  1.0000
  N   N1        1.0  0.92517  0.10741  0.94707  1.0000
  C   C18       1.0  0.88368  0.03735  0.96138  1.0000
  O   O4        1.0  0.88217  0.03656  0.91308  1.0000
  C   C19       1.0  0.83829  0.05599  0.97757  1.0000
  O   O5        1.0  0.82756  0.09591  0.95348  1.0000
  C   C20       1.0  0.89083  0.98821  0.97643  1.0000
  C   C21       1.0  0.94971  0.01384  0.03046  1.0000
  C   C22       1.0  0.91807  0.01889  0.07021  1.0000
  H   H1        1.0  0.00170  0.85411  0.07393  1.0000
  H   H2        1.0  0.94541  0.86800  0.08523  1.0000
  H   H3        1.0  0.95988  0.84231  0.03392  1.0000
  H   H4        1.0  0.00466  0.90911  0.01325  1.0000
  H   H5        1.0  0.99018  0.93482  0.06425  1.0000
  H   H6        1.0  0.92491  0.90634  0.99104  1.0000
  H   H7        1.0  0.90892  0.92940  0.04207  1.0000
  H   H8        1.0  0.97630  0.94413  0.94370  1.0000
  H   H9        1.0  0.96173  0.99850  0.92899  1.0000
  H   H10       1.0  0.03190  0.98030  0.00103  1.0000
  H   H11       1.0  0.15955  0.98448  0.89812  1.0000
  H   H12       1.0  0.25105  0.99878  0.94125  1.0000
  H   H13       1.0  0.28554  0.01069  0.01569  1.0000
  H   H14       1.0  0.23915  0.01340  0.08369  1.0000
  H   H15       1.0  0.15621  0.00418  0.07875  1.0000
  H   H16       1.0  0.92073  0.09922  0.91419  1.0000
  H   H17       1.0  0.95458  0.12436  0.95096  1.0000
  H   H18       1.0  0.85864  0.05770  0.90499  1.0000
  H   H19       1.0  0.81147  0.03227  0.97047  1.0000
  H   H20       1.0  0.83811  0.06349  0.01324  1.0000
  H   H21       1.0  0.85330  0.11581  0.95722  1.0000
  H   H22       1.0  0.88408  0.96545  0.94854  1.0000
  H   H23       1.0  0.86583  0.97999  0.00187  1.0000
  H   H24       1.0  0.98216  0.00671  0.04567  1.0000
  H   H25       1.0  0.91841  0.98888  0.09096  1.0000
  H   H26       1.0  0.92864  0.04674  0.09139  1.0000
  H   H27       1.0  0.88358  0.02526  0.06051  1.0000
