data_image0
_chemical_formula_structural       C4NCSNC4FC2OSO2H15
_chemical_formula_sum              "C11 N2 S2 F1 O3 H15"
_cell_length_a       30
_cell_length_b       30
_cell_length_c       30
_cell_angle_alpha    90
_cell_angle_beta     90
_cell_angle_gamma    90

_space_group_name_H-M_alt    "P 1"
_space_group_IT_number       1

loop_
  _space_group_symop_operation_xyz
  'x, y, z'

loop_
  _atom_site_type_symbol
  _atom_site_label
  _atom_site_symmetry_multiplicity
  _atom_site_fract_x
  _atom_site_fract_y
  _atom_site_fract_z
  _atom_site_occupancy
  C   C1        1.0  0.85038  0.07763  0.01220  1.0000
  C   C2        1.0  0.84584  0.03405  0.98671  1.0000
  C   C3        1.0  0.89038  0.01067  0.97833  1.0000
  C   C4        1.0  0.91311  0.99489  0.02107  1.0000
  N   N1        1.0  0.95306  0.96880  0.01047  1.0000
  C   C5        1.0  0.95770  0.92265  0.00024  1.0000
  S   S1        1.0  0.91744  0.88479  0.99743  1.0000
  N   N2        1.0  0.00186  0.91137  0.99247  1.0000
  C   C6        1.0  0.03164  0.94618  0.99644  1.0000
  C   C7        1.0  0.07575  0.94311  0.99052  1.0000
  C   C8        1.0  0.10821  0.97882  0.99440  1.0000
  C   C9        1.0  0.15196  0.97246  0.98781  1.0000
  F   F1        1.0  0.16750  0.93153  0.97709  1.0000
  C   C10       1.0  0.18723  0.00738  0.99117  1.0000
  C   C11       1.0  0.17397  0.05438  0.00292  1.0000
  O   O1        1.0  0.22650  0.99759  0.98439  1.0000
  S   S2        1.0  0.00325  0.99529  0.01054  1.0000
  O   O2        1.0  0.01347  0.00855  0.05576  1.0000
  O   O3        1.0  0.00419  0.02670  0.97397  1.0000
  H   H1        1.0  0.87365  0.10023  0.99550  1.0000
  H   H2        1.0  0.81799  0.09432  0.01432  1.0000
  H   H3        1.0  0.86213  0.07204  0.04626  1.0000
  H   H4        1.0  0.83020  0.04107  0.95442  1.0000
  H   H5        1.0  0.82324  0.01169  0.00473  1.0000
  H   H6        1.0  0.88428  0.98210  0.95636  1.0000
  H   H7        1.0  0.91263  0.03307  0.95990  1.0000
  H   H8        1.0  0.92230  0.02342  0.04192  1.0000
  H   H9        1.0  0.89030  0.97469  0.04121  1.0000
  H   H10       1.0  0.01071  0.87978  0.98476  1.0000
  H   H11       1.0  0.08944  0.91058  0.98183  1.0000
  H   H12       1.0  0.09607  0.01183  0.00300  1.0000
  H   H13       1.0  0.15144  0.06777  0.97761  1.0000
  H   H14       1.0  0.15839  0.05517  0.03584  1.0000
  H   H15       1.0  0.20377  0.07540  0.00392  1.0000
