data_image0
_chemical_formula_structural       C4NC2NCONC2N2C3H21
_chemical_formula_sum              "C12 N5 O1 H21"
_cell_length_a       30
_cell_length_b       30
_cell_length_c       30
_cell_angle_alpha    90
_cell_angle_beta     90
_cell_angle_gamma    90

_space_group_name_H-M_alt    "P 1"
_space_group_IT_number       1

loop_
  _space_group_symop_operation_xyz
  'x, y, z'

loop_
  _atom_site_type_symbol
  _atom_site_label
  _atom_site_symmetry_multiplicity
  _atom_site_fract_x
  _atom_site_fract_y
  _atom_site_fract_z
  _atom_site_occupancy
  C   C1        1.0  0.81120  0.97554  0.95571  1.0000
  C   C2        1.0  0.82072  0.00963  0.99200  1.0000
  C   C3        1.0  0.86894  0.02645  0.99199  1.0000
  C   C4        1.0  0.90294  0.98986  0.00314  1.0000
  N   N1        1.0  0.94818  0.00759  0.01031  1.0000
  C   C5        1.0  0.97724  0.97257  0.02922  1.0000
  C   C6        1.0  0.02518  0.98899  0.03743  1.0000
  N   N2        1.0  0.04518  0.00884  0.99742  1.0000
  C   C7        1.0  0.09108  0.01649  0.99363  1.0000
  O   O1        1.0  0.10586  0.04841  0.97263  1.0000
  N   N3        1.0  0.11702  0.98478  0.01441  1.0000
  C   C8        1.0  0.16285  0.98668  0.01901  1.0000
  C   C9        1.0  0.19122  0.02149  0.01018  1.0000
  N   N4        1.0  0.23305  0.00687  0.02027  1.0000
  N   N5        1.0  0.23403  0.96479  0.03570  1.0000
  C   C10       1.0  0.19121  0.95257  0.03486  1.0000
  C   C11       1.0  0.01632  0.04149  0.97542  1.0000
  C   C12       1.0  0.96843  0.02434  0.96857  1.0000
  H   H1        1.0  0.77567  0.96722  0.95536  1.0000
  H   H2        1.0  0.82971  0.94461  0.96123  1.0000
  H   H3        1.0  0.82006  0.98860  0.92281  1.0000
  H   H4        1.0  0.81253  0.99530  0.02460  1.0000
  H   H5        1.0  0.79850  0.03825  0.98718  1.0000
  H   H6        1.0  0.87617  0.04123  0.95938  1.0000
  H   H7        1.0  0.87161  0.05329  0.01670  1.0000
  H   H8        1.0  0.90326  0.96430  0.97699  1.0000
  H   H9        1.0  0.89173  0.97351  0.03390  1.0000
  H   H10       1.0  0.97830  0.94364  0.00680  1.0000
  H   H11       1.0  0.96361  0.96118  0.06117  1.0000
  H   H12       1.0  0.04515  0.96115  0.04978  1.0000
  H   H13       1.0  0.02550  0.01468  0.06347  1.0000
  H   H14       1.0  0.10289  0.95491  0.02021  1.0000
  H   H15       1.0  0.18562  0.05479  0.99763  1.0000
  H   H16       1.0  0.26224  0.02374  0.01757  1.0000
  H   H17       1.0  0.18251  0.91935  0.04585  1.0000
  H   H18       1.0  0.01611  0.07169  0.99607  1.0000
  H   H19       1.0  0.03051  0.05049  0.94297  1.0000
  H   H20       1.0  0.94881  0.05201  0.95508  1.0000
  H   H21       1.0  0.96886  0.99782  0.94334  1.0000
