data_image0
_chemical_formula_structural       C4NC3NC3ONC7SCH35
_chemical_formula_sum              "C18 N3 O1 S1 H35"
_cell_length_a       30
_cell_length_b       30
_cell_length_c       30
_cell_angle_alpha    90
_cell_angle_beta     90
_cell_angle_gamma    90

_space_group_name_H-M_alt    "P 1"
_space_group_IT_number       1

loop_
  _space_group_symop_operation_xyz
  'x, y, z'

loop_
  _atom_site_type_symbol
  _atom_site_label
  _atom_site_symmetry_multiplicity
  _atom_site_fract_x
  _atom_site_fract_y
  _atom_site_fract_z
  _atom_site_occupancy
  C   C1        1.0  0.19313  0.96078  0.98678  1.0000
  C   C2        1.0  0.15238  0.98903  0.99730  1.0000
  C   C3        1.0  0.11738  0.96233  0.02310  1.0000
  C   C4        1.0  0.07562  0.98995  0.03404  1.0000
  N   N1        1.0  0.04903  0.00229  0.99407  1.0000
  C   C5        1.0  0.02556  0.04461  0.00336  1.0000
  C   C6        1.0  0.00930  0.07094  0.96250  1.0000
  C   C7        1.0  0.97996  0.11067  0.97655  1.0000
  N   N2        1.0  0.94284  0.09677  0.00529  1.0000
  C   C8        1.0  0.92683  0.13378  0.03280  1.0000
  C   C9        1.0  0.90543  0.07672  0.98025  1.0000
  C   C10       1.0  0.88157  0.04168  0.00951  1.0000
  O   O1        1.0  0.84600  0.05195  0.02770  1.0000
  N   N3        1.0  0.90108  0.99934  0.01572  1.0000
  C   C11       1.0  0.87473  0.96795  0.04220  1.0000
  C   C12       1.0  0.90011  0.93010  0.06507  1.0000
  C   C13       1.0  0.91915  0.89605  0.03248  1.0000
  C   C14       1.0  0.96496  0.90797  0.01362  1.0000
  C   C15       1.0  0.97419  0.95817  0.00636  1.0000
  C   C16       1.0  0.93384  0.98094  0.98423  1.0000
  C   C17       1.0  0.01995  0.96408  0.98091  1.0000
  S   S1        1.0  0.01368  0.95992  0.91973  1.0000
  C   C18       1.0  0.07156  0.96071  0.90306  1.0000
  H   H1        1.0  0.18411  0.93201  0.96623  1.0000
  H   H2        1.0  0.21779  0.98048  0.96849  1.0000
  H   H3        1.0  0.20882  0.94856  0.01737  1.0000
  H   H4        1.0  0.16271  0.01804  0.01699  1.0000
  H   H5        1.0  0.13843  0.00175  0.96610  1.0000
  H   H6        1.0  0.13212  0.95114  0.05467  1.0000
  H   H7        1.0  0.10871  0.93204  0.00468  1.0000
  H   H8        1.0  0.08753  0.01982  0.05151  1.0000
  H   H9        1.0  0.05498  0.97198  0.05831  1.0000
  H   H10       1.0  0.99903  0.03930  0.02777  1.0000
  H   H11       1.0  0.04891  0.06749  0.01991  1.0000
  H   H12       1.0  0.99109  0.05040  0.93876  1.0000
  H   H13       1.0  0.03835  0.08364  0.94423  1.0000
  H   H14       1.0  0.96794  0.12867  0.94708  1.0000
  H   H15       1.0  0.00166  0.13387  0.99474  1.0000
  H   H16       1.0  0.91417  0.16141  0.01252  1.0000
  H   H17       1.0  0.90031  0.12290  0.05541  1.0000
  H   H18       1.0  0.95374  0.14651  0.05396  1.0000
  H   H19       1.0  0.91530  0.06185  0.94852  1.0000
  H   H20       1.0  0.88088  0.10216  0.97071  1.0000
  H   H21       1.0  0.85724  0.98650  0.06841  1.0000
  H   H22       1.0  0.84890  0.95433  0.02016  1.0000
  H   H23       1.0  0.92605  0.94318  0.08720  1.0000
  H   H24       1.0  0.87620  0.91261  0.08655  1.0000
  H   H25       1.0  0.89559  0.89060  0.00504  1.0000
  H   H26       1.0  0.92217  0.86377  0.04943  1.0000
  H   H27       1.0  0.99043  0.89510  0.03657  1.0000
  H   H28       1.0  0.96944  0.88948  0.98239  1.0000
  H   H29       1.0  0.97863  0.97216  0.03986  1.0000
  H   H30       1.0  0.94544  0.00734  0.96285  1.0000
  H   H31       1.0  0.91582  0.95805  0.96210  1.0000
  H   H32       1.0  0.03895  0.93369  0.98788  1.0000
  H   H33       1.0  0.08590  0.99379  0.90815  1.0000
  H   H34       1.0  0.09071  0.93567  0.92130  1.0000
  H   H35       1.0  0.07366  0.95296  0.86751  1.0000
