data_image0
_chemical_formula_structural       C4BrNC3ONC11H27
_chemical_formula_sum              "C18 Br1 N2 O1 H27"
_cell_length_a       30
_cell_length_b       30
_cell_length_c       30
_cell_angle_alpha    90
_cell_angle_beta     90
_cell_angle_gamma    90

_space_group_name_H-M_alt    "P 1"
_space_group_IT_number       1

loop_
  _space_group_symop_operation_xyz
  'x, y, z'

loop_
  _atom_site_type_symbol
  _atom_site_label
  _atom_site_symmetry_multiplicity
  _atom_site_fract_x
  _atom_site_fract_y
  _atom_site_fract_z
  _atom_site_occupancy
  C   C1        1.0  0.86454  0.86719  0.97559  1.0000
  C   C2        1.0  0.85909  0.90550  0.00817  1.0000
  C   C3        1.0  0.89486  0.94212  0.00564  1.0000
  C   C4        1.0  0.89202  0.97295  0.96496  1.0000
  Br  Br1       1.0  0.91890  0.94584  0.91183  1.0000
  N   N1        1.0  0.91134  0.01734  0.96902  1.0000
  C   C5        1.0  0.95006  0.02448  0.99835  1.0000
  C   C6        1.0  0.99362  0.00265  0.98225  1.0000
  C   C7        1.0  0.02941  0.00356  0.01801  1.0000
  O   O1        1.0  0.02117  0.00244  0.05805  1.0000
  N   N2        1.0  0.07222  0.00303  0.00103  1.0000
  C   C8        1.0  0.11069  0.99837  0.03022  1.0000
  C   C9        1.0  0.11951  0.94925  0.04138  1.0000
  C   C10       1.0  0.15584  0.93537  0.00885  1.0000
  C   C11       1.0  0.18579  0.97610  0.00753  1.0000
  C   C12       1.0  0.15337  0.01535  0.00752  1.0000
  C   C13       1.0  0.95684  0.07485  0.00381  1.0000
  C   C14       1.0  0.96540  0.10285  0.96719  1.0000
  C   C15       1.0  0.97179  0.14857  0.97318  1.0000
  C   C16       1.0  0.96982  0.16697  0.01576  1.0000
  C   C17       1.0  0.96148  0.13972  0.05240  1.0000
  C   C18       1.0  0.95502  0.09401  0.04650  1.0000
  H   H1        1.0  0.89867  0.85439  0.97565  1.0000
  H   H2        1.0  0.85560  0.87712  0.94174  1.0000
  H   H3        1.0  0.84229  0.83974  0.98482  1.0000
  H   H4        1.0  0.82589  0.92023  0.00421  1.0000
  H   H5        1.0  0.86008  0.89147  0.04193  1.0000
  H   H6        1.0  0.88950  0.96233  0.03567  1.0000
  H   H7        1.0  0.92803  0.92711  0.00886  1.0000
  H   H8        1.0  0.85705  0.97728  0.95542  1.0000
  H   H9        1.0  0.91763  0.02919  0.93790  1.0000
  H   H10       1.0  0.94173  0.01151  0.03144  1.0000
  H   H11       1.0  0.00599  0.01840  0.95167  1.0000
  H   H12       1.0  0.98865  0.96723  0.97511  1.0000
  H   H13       1.0  0.07627  0.99661  0.96816  1.0000
  H   H14       1.0  0.10403  0.01713  0.06087  1.0000
  H   H15       1.0  0.13230  0.94663  0.07557  1.0000
  H   H16       1.0  0.08997  0.92793  0.03880  1.0000
  H   H17       1.0  0.14167  0.92887  0.97580  1.0000
  H   H18       1.0  0.17356  0.90547  0.01975  1.0000
  H   H19       1.0  0.20659  0.97736  0.03761  1.0000
  H   H20       1.0  0.20794  0.97633  0.97854  1.0000
  H   H21       1.0  0.14700  0.02650  0.97322  1.0000
  H   H22       1.0  0.16766  0.04377  0.02562  1.0000
  H   H23       1.0  0.96705  0.08934  0.93362  1.0000
  H   H24       1.0  0.97825  0.16984  0.94457  1.0000
  H   H25       1.0  0.97480  0.20253  0.02042  1.0000
  H   H26       1.0  0.96007  0.15394  0.08570  1.0000
  H   H27       1.0  0.94893  0.07325  0.07562  1.0000
