data_image0
_chemical_formula_structural       C8OC10ONCH37
_chemical_formula_sum              "C19 O2 N1 H37"
_cell_length_a       30
_cell_length_b       30
_cell_length_c       30
_cell_angle_alpha    90
_cell_angle_beta     90
_cell_angle_gamma    90

_space_group_name_H-M_alt    "P 1"
_space_group_IT_number       1

loop_
  _space_group_symop_operation_xyz
  'x, y, z'

loop_
  _atom_site_type_symbol
  _atom_site_label
  _atom_site_symmetry_multiplicity
  _atom_site_fract_x
  _atom_site_fract_y
  _atom_site_fract_z
  _atom_site_occupancy
  C   C1        1.0  0.19983  0.93612  0.04611  1.0000
  C   C2        1.0  0.16919  0.97034  0.06757  1.0000
  C   C3        1.0  0.12825  0.98162  0.03922  1.0000
  C   C4        1.0  0.13962  0.00883  0.99741  1.0000
  C   C5        1.0  0.10081  0.01619  0.96420  1.0000
  C   C6        1.0  0.05910  0.03525  0.98737  1.0000
  C   C7        1.0  0.01897  0.04176  0.95562  1.0000
  C   C8        1.0  0.97654  0.01776  0.97331  1.0000
  O   O1        1.0  0.94209  0.02107  0.94089  1.0000
  C   C9        1.0  0.95963  0.03858  0.01726  1.0000
  C   C10       1.0  0.91723  0.01835  0.03937  1.0000
  C   C11       1.0  0.87593  0.04876  0.03454  1.0000
  C   C12       1.0  0.85818  0.05496  0.98722  1.0000
  C   C13       1.0  0.81455  0.08089  0.98719  1.0000
  C   C14       1.0  0.90933  0.96878  0.02798  1.0000
  C   C15       1.0  0.87384  0.94541  0.05650  1.0000
  C   C16       1.0  0.82845  0.94251  0.03406  1.0000
  C   C17       1.0  0.03072  0.02774  0.90791  1.0000
  C   C18       1.0  0.05274  0.98239  0.90686  1.0000
  O   O2        1.0  0.04116  0.95380  0.87996  1.0000
  N   N1        1.0  0.08747  0.97724  0.93746  1.0000
  C   C19       1.0  0.11776  0.93996  0.93067  1.0000
  H   H1        1.0  0.22659  0.92708  0.06924  1.0000
  H   H2        1.0  0.18157  0.90569  0.03758  1.0000
  H   H3        1.0  0.21540  0.94907  0.01581  1.0000
  H   H4        1.0  0.18804  0.00074  0.07502  1.0000
  H   H5        1.0  0.15769  0.95694  0.09958  1.0000
  H   H6        1.0  0.10562  0.00113  0.06026  1.0000
  H   H7        1.0  0.11055  0.95090  0.03052  1.0000
  H   H8        1.0  0.16782  0.99395  0.97967  1.0000
  H   H9        1.0  0.15127  0.04171  0.00852  1.0000
  H   H10       1.0  0.11296  0.04091  0.94006  1.0000
  H   H11       1.0  0.06732  0.06715  0.00325  1.0000
  H   H12       1.0  0.04933  0.01250  0.01418  1.0000
  H   H13       1.0  0.01123  0.07753  0.95401  1.0000
  H   H14       1.0  0.98397  0.98235  0.97840  1.0000
  H   H15       1.0  0.94459  0.99538  0.92116  1.0000
  H   H16       1.0  0.95432  0.07443  0.01218  1.0000
  H   H17       1.0  0.98636  0.03616  0.04210  1.0000
  H   H18       1.0  0.92446  0.01909  0.07535  1.0000
  H   H19       1.0  0.84927  0.03609  0.05606  1.0000
  H   H20       1.0  0.88420  0.08173  0.04816  1.0000
  H   H21       1.0  0.85269  0.02271  0.97108  1.0000
  H   H22       1.0  0.88239  0.07350  0.96719  1.0000
  H   H23       1.0  0.78870  0.06300  0.00571  1.0000
  H   H24       1.0  0.81888  0.11378  0.00237  1.0000
  H   H25       1.0  0.80273  0.08565  0.95301  1.0000
  H   H26       1.0  0.90169  0.96433  0.99257  1.0000
  H   H27       1.0  0.94084  0.95117  0.03404  1.0000
  H   H28       1.0  0.88503  0.91113  0.06271  1.0000
  H   H29       1.0  0.87071  0.96131  0.08923  1.0000
  H   H30       1.0  0.80547  0.92324  0.05487  1.0000
  H   H31       1.0  0.83091  0.92576  0.00174  1.0000
  H   H32       1.0  0.81365  0.97533  0.02879  1.0000
  H   H33       1.0  0.00149  0.02733  0.88609  1.0000
  H   H34       1.0  0.05392  0.05173  0.89294  1.0000
  H   H35       1.0  0.14733  0.95203  0.91306  1.0000
  H   H36       1.0  0.10236  0.91370  0.91060  1.0000
  H   H37       1.0  0.12727  0.92545  0.96261  1.0000
