data_image0
_chemical_formula_structural       C11ONCOC4OH27
_chemical_formula_sum              "C16 O3 N1 H27"
_cell_length_a       30
_cell_length_b       30
_cell_length_c       30
_cell_angle_alpha    90
_cell_angle_beta     90
_cell_angle_gamma    90

_space_group_name_H-M_alt    "P 1"
_space_group_IT_number       1

loop_
  _space_group_symop_operation_xyz
  'x, y, z'

loop_
  _atom_site_type_symbol
  _atom_site_label
  _atom_site_symmetry_multiplicity
  _atom_site_fract_x
  _atom_site_fract_y
  _atom_site_fract_z
  _atom_site_occupancy
  C   C1        1.0  0.18914  0.93702  0.01435  1.0000
  C   C2        1.0  0.14793  0.96554  0.00666  1.0000
  C   C3        1.0  0.10657  0.94449  0.02776  1.0000
  C   C4        1.0  0.06481  0.97377  0.02436  1.0000
  C   C5        1.0  0.04939  0.98127  0.97606  1.0000
  C   C6        1.0  0.00251  0.00376  0.96992  1.0000
  C   C7        1.0  0.99845  0.01318  0.91943  1.0000
  C   C8        1.0  0.00094  0.04760  0.99756  1.0000
  C   C9        1.0  0.95963  0.07730  0.99223  1.0000
  C   C10       1.0  0.96527  0.12094  0.01837  1.0000
  C   C11       1.0  0.92478  0.15139  0.01422  1.0000
  O   O1        1.0  0.88670  0.13197  0.03453  1.0000
  N   N1        1.0  0.96865  0.97149  0.98538  1.0000
  C   C12       1.0  0.92358  0.97169  0.97525  1.0000
  O   O2        1.0  0.90714  0.99782  0.94846  1.0000
  C   C13       1.0  0.89748  0.93832  0.99895  1.0000
  C   C14       1.0  0.90842  0.90343  0.02722  1.0000
  C   C15       1.0  0.86793  0.88256  0.03979  1.0000
  C   C16       1.0  0.83464  0.90567  0.01854  1.0000
  O   O3        1.0  0.85203  0.93924  0.99381  1.0000
  H   H1        1.0  0.19592  0.93316  0.05000  1.0000
  H   H2        1.0  0.21831  0.95256  0.99891  1.0000
  H   H3        1.0  0.18495  0.90382  0.99981  1.0000
  H   H4        1.0  0.15355  0.99877  0.02078  1.0000
  H   H5        1.0  0.14315  0.96964  0.97070  1.0000
  H   H6        1.0  0.11315  0.93816  0.06317  1.0000
  H   H7        1.0  0.10003  0.91199  0.01235  1.0000
  H   H8        1.0  0.07167  0.00587  0.04039  1.0000
  H   H9        1.0  0.03841  0.95768  0.04375  1.0000
  H   H10       1.0  0.07451  0.00195  0.95932  1.0000
  H   H11       1.0  0.04924  0.94902  0.95870  1.0000
  H   H12       1.0  0.96764  0.03030  0.91033  1.0000
  H   H13       1.0  0.02591  0.03432  0.90784  1.0000
  H   H14       1.0  0.99945  0.98207  0.90028  1.0000
  H   H15       1.0  0.03046  0.06755  0.98911  1.0000
  H   H16       1.0  0.00371  0.03947  0.03312  1.0000
  H   H17       1.0  0.93013  0.05978  0.00458  1.0000
  H   H18       1.0  0.95401  0.08538  0.95711  1.0000
  H   H19       1.0  0.99475  0.13873  0.00614  1.0000
  H   H20       1.0  0.97093  0.11303  0.05361  1.0000
  H   H21       1.0  0.91696  0.15811  0.97923  1.0000
  H   H22       1.0  0.93128  0.18333  0.03064  1.0000
  H   H23       1.0  0.89440  0.12461  0.06511  1.0000
  H   H24       1.0  0.97767  0.95184  0.01107  1.0000
  H   H25       1.0  0.94151  0.89365  0.03752  1.0000
  H   H26       1.0  0.86355  0.85414  0.06149  1.0000
  H   H27       1.0  0.79874  0.90261  0.01749  1.0000
