data_image0
_chemical_formula_structural       C4NC7ONC2FC3NC2H30
_chemical_formula_sum              "C18 N3 O1 F1 H30"
_cell_length_a       30
_cell_length_b       30
_cell_length_c       30
_cell_angle_alpha    90
_cell_angle_beta     90
_cell_angle_gamma    90

_space_group_name_H-M_alt    "P 1"
_space_group_IT_number       1

loop_
  _space_group_symop_operation_xyz
  'x, y, z'

loop_
  _atom_site_type_symbol
  _atom_site_label
  _atom_site_symmetry_multiplicity
  _atom_site_fract_x
  _atom_site_fract_y
  _atom_site_fract_z
  _atom_site_occupancy
  C   C1        1.0  0.94754  0.15880  0.03922  1.0000
  C   C2        1.0  0.93827  0.12813  0.99993  1.0000
  C   C3        1.0  0.96827  0.08690  0.99895  1.0000
  C   C4        1.0  0.96096  0.05587  0.03892  1.0000
  N   N1        1.0  0.98319  0.01269  0.03349  1.0000
  C   C5        1.0  0.95564  0.97230  0.03726  1.0000
  C   C6        1.0  0.93956  0.95450  0.99166  1.0000
  C   C7        1.0  0.92973  0.90398  0.99357  1.0000
  C   C8        1.0  0.97163  0.87536  0.99623  1.0000
  C   C9        1.0  0.89874  0.98010  0.97334  1.0000
  C   C10       1.0  0.85600  0.97584  0.00041  1.0000
  C   C11       1.0  0.02969  0.01230  0.03513  1.0000
  O   O1        1.0  0.05174  0.04572  0.04338  1.0000
  N   N2        1.0  0.04826  0.97150  0.02646  1.0000
  C   C12       1.0  0.09616  0.96616  0.02325  1.0000
  C   C13       1.0  0.10735  0.91629  0.02442  1.0000
  F   F1        1.0  0.11506  0.98308  0.06115  1.0000
  C   C14       1.0  0.11430  0.98776  0.98107  1.0000
  C   C15       1.0  0.10564  0.97087  0.93838  1.0000
  C   C16       1.0  0.12325  0.99284  0.90169  1.0000
  N   N3        1.0  0.14826  0.03007  0.90439  1.0000
  C   C17       1.0  0.15571  0.04639  0.94565  1.0000
  C   C18       1.0  0.13978  0.02674  0.98427  1.0000
  H   H1        1.0  0.93937  0.14272  0.07092  1.0000
  H   H2        1.0  0.98262  0.16880  0.04004  1.0000
  H   H3        1.0  0.92724  0.18900  0.03659  1.0000
  H   H4        1.0  0.90318  0.11796  0.00044  1.0000
  H   H5        1.0  0.94336  0.14693  0.96900  1.0000
  H   H6        1.0  0.00319  0.09749  0.99721  1.0000
  H   H7        1.0  0.96178  0.06864  0.96796  1.0000
  H   H8        1.0  0.92518  0.05034  0.04364  1.0000
  H   H9        1.0  0.97369  0.07125  0.06952  1.0000
  H   H10       1.0  0.97552  0.94703  0.05447  1.0000
  H   H11       1.0  0.92784  0.97901  0.05993  1.0000
  H   H12       1.0  0.96635  0.95947  0.96720  1.0000
  H   H13       1.0  0.90824  0.89628  0.02211  1.0000
  H   H14       1.0  0.91148  0.89402  0.96349  1.0000
  H   H15       1.0  0.96267  0.84002  0.99451  1.0000
  H   H16       1.0  0.99417  0.88257  0.96846  1.0000
  H   H17       1.0  0.98976  0.88055  0.02740  1.0000
  H   H18       1.0  0.90685  0.01548  0.96992  1.0000
  H   H19       1.0  0.89190  0.96824  0.93941  1.0000
  H   H20       1.0  0.82918  0.99443  0.98405  1.0000
  H   H21       1.0  0.85977  0.98948  0.03398  1.0000
  H   H22       1.0  0.84517  0.94114  0.00311  1.0000
  H   H23       1.0  0.03090  0.95399  0.00387  1.0000
  H   H24       1.0  0.09660  0.90171  0.05616  1.0000
  H   H25       1.0  0.09109  0.89749  0.99769  1.0000
  H   H26       1.0  0.14341  0.91102  0.02198  1.0000
  H   H27       1.0  0.08555  0.94128  0.93321  1.0000
  H   H28       1.0  0.11740  0.98070  0.86808  1.0000
  H   H29       1.0  0.17534  0.07679  0.94701  1.0000
  H   H30       1.0  0.14646  0.04199  0.01645  1.0000
