data_image0
_chemical_formula_structural       C3NSO2C4NCSNC9H27
_chemical_formula_sum              "C17 N3 S2 O2 H27"
_cell_length_a       30
_cell_length_b       30
_cell_length_c       30
_cell_angle_alpha    90
_cell_angle_beta     90
_cell_angle_gamma    90

_space_group_name_H-M_alt    "P 1"
_space_group_IT_number       1

loop_
  _space_group_symop_operation_xyz
  'x, y, z'

loop_
  _atom_site_type_symbol
  _atom_site_label
  _atom_site_symmetry_multiplicity
  _atom_site_fract_x
  _atom_site_fract_y
  _atom_site_fract_z
  _atom_site_occupancy
  C   C1        1.0  0.74513  0.94049  0.01508  1.0000
  C   C2        1.0  0.79207  0.93586  0.99636  1.0000
  C   C3        1.0  0.80441  0.97311  0.96394  1.0000
  N   N1        1.0  0.80931  0.01527  0.98800  1.0000
  S   S1        1.0  0.83952  0.05617  0.96462  1.0000
  O   O1        1.0  0.82868  0.09655  0.98858  1.0000
  O   O2        1.0  0.83463  0.05287  0.91677  1.0000
  C   C4        1.0  0.89461  0.04084  0.97948  1.0000
  C   C5        1.0  0.90761  0.04301  0.02408  1.0000
  C   C6        1.0  0.95106  0.03105  0.03613  1.0000
  C   C7        1.0  0.98152  0.01668  0.00396  1.0000
  N   N2        1.0  0.02616  0.00481  0.01307  1.0000
  C   C8        1.0  0.04657  0.99114  0.05162  1.0000
  S   S2        1.0  0.02344  0.97267  0.09877  1.0000
  N   N3        1.0  0.09221  0.99176  0.05078  1.0000
  C   C9        1.0  0.12283  0.00638  0.01553  1.0000
  C   C10       1.0  0.13089  0.96828  0.98202  1.0000
  C   C11       1.0  0.17262  0.94157  0.99319  1.0000
  C   C12       1.0  0.21446  0.97065  0.99208  1.0000
  C   C13       1.0  0.20566  0.01943  0.00416  1.0000
  C   C14       1.0  0.16655  0.02404  0.03665  1.0000
  C   C15       1.0  0.16115  0.07245  0.05176  1.0000
  C   C16       1.0  0.96821  0.01589  0.95911  1.0000
  C   C17       1.0  0.92486  0.02767  0.94674  1.0000
  H   H1        1.0  0.73724  0.91186  0.03629  1.0000
  H   H2        1.0  0.72043  0.94180  0.98826  1.0000
  H   H3        1.0  0.74171  0.97060  0.03536  1.0000
  H   H4        1.0  0.81602  0.93471  0.02395  1.0000
  H   H5        1.0  0.79435  0.90388  0.97881  1.0000
  H   H6        1.0  0.77873  0.97661  0.93824  1.0000
  H   H7        1.0  0.83588  0.96424  0.94770  1.0000
  H   H8        1.0  0.78290  0.02729  0.00566  1.0000
  H   H9        1.0  0.88437  0.05425  0.04955  1.0000
  H   H10       1.0  0.96036  0.03464  0.07088  1.0000
  H   H11       1.0  0.04520  0.00069  0.98564  1.0000
  H   H12       1.0  0.10602  0.97914  0.07898  1.0000
  H   H13       1.0  0.10635  0.03358  0.99748  1.0000
  H   H14       1.0  0.10206  0.94589  0.98021  1.0000
  H   H15       1.0  0.13497  0.98260  0.94859  1.0000
  H   H16       1.0  0.16893  0.92674  0.02642  1.0000
  H   H17       1.0  0.17648  0.91376  0.96981  1.0000
  H   H18       1.0  0.22956  0.96939  0.95881  1.0000
  H   H19       1.0  0.23916  0.95647  0.01499  1.0000
  H   H20       1.0  0.19844  0.03830  0.97365  1.0000
  H   H21       1.0  0.23609  0.03395  0.01829  1.0000
  H   H22       1.0  0.17458  0.00431  0.06647  1.0000
  H   H23       1.0  0.19161  0.08439  0.06795  1.0000
  H   H24       1.0  0.15410  0.09445  0.02350  1.0000
  H   H25       1.0  0.13382  0.07567  0.07574  1.0000
  H   H26       1.0  0.99133  0.00562  0.93314  1.0000
  H   H27       1.0  0.91517  0.02653  0.91183  1.0000
