data_image0
_chemical_formula_structural       C3NC6BrC5OCOH20
_chemical_formula_sum              "C15 N1 Br1 O2 H20"
_cell_length_a       30
_cell_length_b       30
_cell_length_c       30
_cell_angle_alpha    90
_cell_angle_beta     90
_cell_angle_gamma    90

_space_group_name_H-M_alt    "P 1"
_space_group_IT_number       1

loop_
  _space_group_symop_operation_xyz
  'x, y, z'

loop_
  _atom_site_type_symbol
  _atom_site_label
  _atom_site_symmetry_multiplicity
  _atom_site_fract_x
  _atom_site_fract_y
  _atom_site_fract_z
  _atom_site_occupancy
  C   C1        1.0  0.09844  0.90162  0.99633  1.0000
  C   C2        1.0  0.06407  0.93873  0.99964  1.0000
  C   C3        1.0  0.08378  0.98355  0.98591  1.0000
  N   N1        1.0  0.05172  0.02027  0.98662  1.0000
  C   C4        1.0  0.01883  0.02363  0.95071  1.0000
  C   C5        1.0  0.96880  0.02978  0.96375  1.0000
  C   C6        1.0  0.94774  0.99018  0.98775  1.0000
  C   C7        1.0  0.91213  0.96732  0.96753  1.0000
  C   C8        1.0  0.89167  0.93115  0.98859  1.0000
  C   C9        1.0  0.90653  0.91745  0.03031  1.0000
  Br  Br1       1.0  0.87905  0.86852  0.05890  1.0000
  C   C10       1.0  0.94155  0.93964  0.05106  1.0000
  C   C11       1.0  0.96191  0.97581  0.02986  1.0000
  C   C12       1.0  0.95289  0.07540  0.98270  1.0000
  C   C13       1.0  0.96845  0.09066  0.02909  1.0000
  C   C14       1.0  0.01292  0.11536  0.02856  1.0000
  O   O1        1.0  0.04167  0.09388  0.99774  1.0000
  C   C15       1.0  0.06060  0.05624  0.01390  1.0000
  O   O2        1.0  0.08245  0.05500  0.04828  1.0000
  H   H1        1.0  0.08371  0.86983  0.00651  1.0000
  H   H2        1.0  0.11055  0.89804  0.96209  1.0000
  H   H3        1.0  0.12704  0.90829  0.01798  1.0000
  H   H4        1.0  0.03551  0.93027  0.97853  1.0000
  H   H5        1.0  0.05203  0.94061  0.03406  1.0000
  H   H6        1.0  0.09740  0.98173  0.95202  1.0000
  H   H7        1.0  0.11194  0.99138  0.00785  1.0000
  H   H8        1.0  0.02141  0.99321  0.93053  1.0000
  H   H9        1.0  0.02901  0.05114  0.92885  1.0000
  H   H10       1.0  0.95293  0.02965  0.93058  1.0000
  H   H11       1.0  0.89979  0.97755  0.93498  1.0000
  H   H12       1.0  0.86426  0.91407  0.97219  1.0000
  H   H13       1.0  0.95341  0.92916  0.08365  1.0000
  H   H14       1.0  0.98938  0.99224  0.04685  1.0000
  H   H15       1.0  0.91628  0.07428  0.98386  1.0000
  H   H16       1.0  0.96093  0.10153  0.95835  1.0000
  H   H17       1.0  0.94340  0.11320  0.04331  1.0000
  H   H18       1.0  0.97037  0.06249  0.05202  1.0000
  H   H19       1.0  0.00794  0.14949  0.01658  1.0000
  H   H20       1.0  0.02753  0.11765  0.06197  1.0000
