data_image0
_chemical_formula_structural       C3NC6F3C7NCH25
_chemical_formula_sum              "C17 N2 F3 H25"
_cell_length_a       30
_cell_length_b       30
_cell_length_c       30
_cell_angle_alpha    90
_cell_angle_beta     90
_cell_angle_gamma    90

_space_group_name_H-M_alt    "P 1"
_space_group_IT_number       1

loop_
  _space_group_symop_operation_xyz
  'x, y, z'

loop_
  _atom_site_type_symbol
  _atom_site_label
  _atom_site_symmetry_multiplicity
  _atom_site_fract_x
  _atom_site_fract_y
  _atom_site_fract_z
  _atom_site_occupancy
  C   C1        1.0  0.02545  0.14827  0.01414  1.0000
  C   C2        1.0  0.01215  0.10403  0.03515  1.0000
  C   C3        1.0  0.00038  0.06944  0.99929  1.0000
  N   N1        1.0  0.98424  0.02593  0.01540  1.0000
  C   C4        1.0  0.01696  0.00193  0.04303  1.0000
  C   C5        1.0  0.05845  0.98825  0.01767  1.0000
  C   C6        1.0  0.10065  0.00289  0.03130  1.0000
  C   C7        1.0  0.13883  0.98996  0.00797  1.0000
  C   C8        1.0  0.13561  0.96187  0.97071  1.0000
  C   C9        1.0  0.17676  0.94862  0.94509  1.0000
  F   F1        1.0  0.18717  0.97839  0.91244  1.0000
  F   F2        1.0  0.21379  0.94548  0.97126  1.0000
  F   F3        1.0  0.17289  0.90834  0.92444  1.0000
  C   C10       1.0  0.09335  0.94739  0.95698  1.0000
  C   C11       1.0  0.05521  0.96033  0.98032  1.0000
  C   C12       1.0  0.94056  0.02905  0.03737  1.0000
  C   C13       1.0  0.90588  0.99620  0.01884  1.0000
  C   C14       1.0  0.89467  0.00263  0.96914  1.0000
  C   C15       1.0  0.88593  0.95592  0.95041  1.0000
  C   C16       1.0  0.88332  0.92556  0.99115  1.0000
  N   N2        1.0  0.89350  0.87937  0.98080  1.0000
  C   C17       1.0  0.91695  0.94657  0.02297  1.0000
  H   H1        1.0  0.03393  0.17251  0.04006  1.0000
  H   H2        1.0  0.99813  0.16206  0.99427  1.0000
  H   H3        1.0  0.05452  0.14423  0.99247  1.0000
  H   H4        1.0  0.98381  0.10970  0.05746  1.0000
  H   H5        1.0  0.03996  0.09233  0.05568  1.0000
  H   H6        1.0  0.02945  0.06430  0.97771  1.0000
  H   H7        1.0  0.97496  0.08350  0.97700  1.0000
  H   H8        1.0  0.02588  0.02131  0.07272  1.0000
  H   H9        1.0  0.00241  0.97098  0.05600  1.0000
  H   H10       1.0  0.10406  0.02463  0.06013  1.0000
  H   H11       1.0  0.17127  0.00190  0.01904  1.0000
  H   H12       1.0  0.08983  0.92590  0.92794  1.0000
  H   H13       1.0  0.02263  0.94888  0.96911  1.0000
  H   H14       1.0  0.94363  0.02451  0.07356  1.0000
  H   H15       1.0  0.92629  0.06249  0.03307  1.0000
  H   H16       1.0  0.87494  0.00201  0.03767  1.0000
  H   H17       1.0  0.86509  0.02378  0.96560  1.0000
  H   H18       1.0  0.92158  0.01862  0.95039  1.0000
  H   H19       1.0  0.85548  0.95467  0.93033  1.0000
  H   H20       1.0  0.91378  0.94639  0.92867  1.0000
  H   H21       1.0  0.84979  0.92747  0.00567  1.0000
  H   H22       1.0  0.87044  0.86713  0.95908  1.0000
  H   H23       1.0  0.89133  0.86051  0.00896  1.0000
  H   H24       1.0  0.95093  0.93927  0.01185  1.0000
  H   H25       1.0  0.91319  0.93447  0.05719  1.0000
