data_image0
_chemical_formula_structural       C3NCOC3NC3NC15NCNCH33
_chemical_formula_sum              "C27 N5 O1 H33"
_cell_length_a       30
_cell_length_b       30
_cell_length_c       30
_cell_angle_alpha    90
_cell_angle_beta     90
_cell_angle_gamma    90

_space_group_name_H-M_alt    "P 1"
_space_group_IT_number       1

loop_
  _space_group_symop_operation_xyz
  'x, y, z'

loop_
  _atom_site_type_symbol
  _atom_site_label
  _atom_site_symmetry_multiplicity
  _atom_site_fract_x
  _atom_site_fract_y
  _atom_site_fract_z
  _atom_site_occupancy
  C   C1        1.0  0.82714  0.92120  0.05361  1.0000
  C   C2        1.0  0.86927  0.89404  0.04631  1.0000
  C   C3        1.0  0.91268  0.92029  0.05296  1.0000
  N   N1        1.0  0.92307  0.95297  0.01765  1.0000
  C   C4        1.0  0.94336  0.93366  0.97977  1.0000
  O   O1        1.0  0.94069  0.89281  0.97384  1.0000
  C   C5        1.0  0.97131  0.96030  0.94593  1.0000
  C   C6        1.0  0.94477  0.97824  0.90764  1.0000
  C   C7        1.0  0.95689  0.00285  0.87232  1.0000
  N   N2        1.0  0.99649  0.01697  0.85521  1.0000
  C   C8        1.0  0.03354  0.02520  0.87543  1.0000
  C   C9        1.0  0.04798  0.02416  0.92246  1.0000
  C   C10       1.0  0.04144  0.06099  0.94722  1.0000
  N   N3        1.0  0.04984  0.06895  0.99263  1.0000
  C   C11       1.0  0.01116  0.08005  0.02218  1.0000
  C   C12       1.0  0.97859  0.04127  0.01788  1.0000
  C   C13       1.0  0.93817  0.03501  0.04720  1.0000
  C   C14       1.0  0.90753  0.07581  0.04812  1.0000
  C   C15       1.0  0.87790  0.07199  0.00675  1.0000
  C   C16       1.0  0.88054  0.02344  0.99091  1.0000
  C   C17       1.0  0.90655  0.99900  0.02732  1.0000
  C   C18       1.0  0.08628  0.04595  0.01760  1.0000
  C   C19       1.0  0.11907  0.01918  0.98829  1.0000
  C   C20       1.0  0.16046  0.00789  0.01561  1.0000
  C   C21       1.0  0.16289  0.96889  0.04133  1.0000
  C   C22       1.0  0.20061  0.95966  0.06698  1.0000
  C   C23       1.0  0.23630  0.98936  0.06739  1.0000
  C   C24       1.0  0.23436  0.02828  0.04214  1.0000
  C   C25       1.0  0.19668  0.03755  0.01643  1.0000
  N   N4        1.0  0.09751  0.97837  0.97140  1.0000
  C   C26       1.0  0.06699  0.98270  0.94184  1.0000
  N   N5        1.0  0.05128  0.94356  0.92410  1.0000
  C   C27       1.0  0.00924  0.93282  0.92651  1.0000
  H   H1        1.0  0.82766  0.93793  0.08602  1.0000
  H   H2        1.0  0.79790  0.89937  0.05271  1.0000
  H   H3        1.0  0.82283  0.94625  0.02753  1.0000
  H   H4        1.0  0.86797  0.87899  0.01309  1.0000
  H   H5        1.0  0.86908  0.86645  0.07031  1.0000
  H   H6        1.0  0.91291  0.93716  0.08540  1.0000
  H   H7        1.0  0.94028  0.89627  0.05440  1.0000
  H   H8        1.0  0.98632  0.98691  0.96388  1.0000
  H   H9        1.0  0.90936  0.96999  0.90911  1.0000
  H   H10       1.0  0.92957  0.01118  0.84967  1.0000
  H   H11       1.0  0.06110  0.03499  0.85300  1.0000
  H   H12       1.0  0.02431  0.08944  0.93243  1.0000
  H   H13       1.0  0.99600  0.11135  0.01106  1.0000
  H   H14       1.0  0.02198  0.08455  0.05677  1.0000
  H   H15       1.0  0.96617  0.04377  0.98373  1.0000
  H   H16       1.0  0.99806  0.01065  0.02213  1.0000
  H   H17       1.0  0.94885  0.02609  0.08097  1.0000
  H   H18       1.0  0.88640  0.07430  0.07795  1.0000
  H   H19       1.0  0.92538  0.10757  0.04933  1.0000
  H   H20       1.0  0.84355  0.08158  0.01454  1.0000
  H   H21       1.0  0.88972  0.09436  0.98039  1.0000
  H   H22       1.0  0.84740  0.00911  0.98575  1.0000
  H   H23       1.0  0.89738  0.02300  0.95889  1.0000
  H   H24       1.0  0.88156  0.99407  0.05370  1.0000
  H   H25       1.0  0.07185  0.02358  0.04275  1.0000
  H   H26       1.0  0.10431  0.07198  0.03591  1.0000
  H   H27       1.0  0.13044  0.03933  0.95988  1.0000
  H   H28       1.0  0.13540  0.94521  0.04111  1.0000
  H   H29       1.0  0.20212  0.92915  0.08644  1.0000
  H   H30       1.0  0.26569  0.98206  0.08727  1.0000
  H   H31       1.0  0.26225  0.05140  0.04236  1.0000
  H   H32       1.0  0.19578  0.06810  0.99693  1.0000
  H   H33       1.0  0.99982  0.90046  0.91166  1.0000
