data_image0
_chemical_formula_structural       C3NCOCNC16OC2OH36
_chemical_formula_sum              "C23 N2 O3 H36"
_cell_length_a       30
_cell_length_b       30
_cell_length_c       30
_cell_angle_alpha    90
_cell_angle_beta     90
_cell_angle_gamma    90

_space_group_name_H-M_alt    "P 1"
_space_group_IT_number       1

loop_
  _space_group_symop_operation_xyz
  'x, y, z'

loop_
  _atom_site_type_symbol
  _atom_site_label
  _atom_site_symmetry_multiplicity
  _atom_site_fract_x
  _atom_site_fract_y
  _atom_site_fract_z
  _atom_site_occupancy
  C   C1        1.0  0.88802  0.11208  0.92109  1.0000
  C   C2        1.0  0.84666  0.09715  0.94639  1.0000
  C   C3        1.0  0.85550  0.08896  0.99580  1.0000
  N   N1        1.0  0.88362  0.05064  0.00337  1.0000
  C   C4        1.0  0.88629  0.02987  0.04432  1.0000
  O   O1        1.0  0.86242  0.03969  0.07610  1.0000
  C   C5        1.0  0.92362  0.99482  0.04766  1.0000
  N   N2        1.0  0.93592  0.97664  0.00302  1.0000
  C   C6        1.0  0.89874  0.94867  0.98525  1.0000
  C   C7        1.0  0.90868  0.89919  0.97545  1.0000
  C   C8        1.0  0.93744  0.87966  0.01163  1.0000
  C   C9        1.0  0.92980  0.83711  0.02897  1.0000
  C   C10       1.0  0.95695  0.82093  0.06295  1.0000
  C   C11       1.0  0.99155  0.84716  0.07947  1.0000
  C   C12       1.0  0.99956  0.88953  0.06180  1.0000
  C   C13       1.0  0.97305  0.90615  0.02730  1.0000
  C   C14       1.0  0.97899  0.95121  0.00426  1.0000
  C   C15       1.0  0.02063  0.98090  0.01621  1.0000
  C   C16       1.0  0.06432  0.96079  0.99805  1.0000
  C   C17       1.0  0.10523  0.98969  0.00941  1.0000
  C   C18       1.0  0.10713  0.03147  0.97931  1.0000
  C   C19       1.0  0.15089  0.05750  0.98365  1.0000
  C   C20       1.0  0.15317  0.09846  0.95311  1.0000
  C   C21       1.0  0.15263  0.08794  0.90336  1.0000
  O   O2        1.0  0.18727  0.05774  0.89203  1.0000
  C   C22       1.0  0.10450  0.00026  0.05947  1.0000
  C   C23       1.0  0.05963  0.01879  0.07423  1.0000
  O   O3        1.0  0.02460  0.98865  0.06323  1.0000
  H   H1        1.0  0.87946  0.11967  0.88644  1.0000
  H   H2        1.0  0.90237  0.14212  0.93603  1.0000
  H   H3        1.0  0.91361  0.08609  0.92075  1.0000
  H   H4        1.0  0.82116  0.12314  0.94320  1.0000
  H   H5        1.0  0.83327  0.06690  0.93086  1.0000
  H   H6        1.0  0.82381  0.08361  0.01318  1.0000
  H   H7        1.0  0.87169  0.11785  0.01120  1.0000
  H   H8        1.0  0.90873  0.04286  0.98201  1.0000
  H   H9        1.0  0.95127  0.01311  0.06265  1.0000
  H   H10       1.0  0.91312  0.96840  0.07060  1.0000
  H   H11       1.0  0.86999  0.94955  0.00793  1.0000
  H   H12       1.0  0.88708  0.96418  0.95426  1.0000
  H   H13       1.0  0.92609  0.89578  0.94347  1.0000
  H   H14       1.0  0.87713  0.88097  0.97263  1.0000
  H   H15       1.0  0.90263  0.81666  0.01649  1.0000
  H   H16       1.0  0.95099  0.78800  0.07681  1.0000
  H   H17       1.0  0.01247  0.83465  0.10629  1.0000
  H   H18       1.0  0.02668  0.90896  0.07582  1.0000
  H   H19       1.0  0.98528  0.94290  0.96905  1.0000
  H   H20       1.0  0.01539  0.01330  0.99996  1.0000
  H   H21       1.0  0.06201  0.95578  0.96192  1.0000
  H   H22       1.0  0.06983  0.92784  0.01282  1.0000
  H   H23       1.0  0.13516  0.96984  0.00235  1.0000
  H   H24       1.0  0.07917  0.05388  0.98630  1.0000
  H   H25       1.0  0.10329  0.02055  0.94465  1.0000
  H   H26       1.0  0.15486  0.06931  0.01797  1.0000
  H   H27       1.0  0.17917  0.03538  0.97685  1.0000
  H   H28       1.0  0.18426  0.11611  0.96083  1.0000
  H   H29       1.0  0.12572  0.12127  0.96093  1.0000
  H   H30       1.0  0.12085  0.07325  0.89321  1.0000
  H   H31       1.0  0.15728  0.11850  0.88394  1.0000
  H   H32       1.0  0.21537  0.07143  0.90065  1.0000
  H   H33       1.0  0.11044  0.96898  0.07755  1.0000
  H   H34       1.0  0.13135  0.02301  0.06897  1.0000
  H   H35       1.0  0.05945  0.02302  0.11048  1.0000
  H   H36       1.0  0.05278  0.05150  0.05951  1.0000
