data_image0
_chemical_formula_structural       C3NCONC2NC7ClC2OH20
_chemical_formula_sum              "C15 N3 O2 Cl1 H20"
_cell_length_a       30
_cell_length_b       30
_cell_length_c       30
_cell_angle_alpha    90
_cell_angle_beta     90
_cell_angle_gamma    90

_space_group_name_H-M_alt    "P 1"
_space_group_IT_number       1

loop_
  _space_group_symop_operation_xyz
  'x, y, z'

loop_
  _atom_site_type_symbol
  _atom_site_label
  _atom_site_symmetry_multiplicity
  _atom_site_fract_x
  _atom_site_fract_y
  _atom_site_fract_z
  _atom_site_occupancy
  C   C1        1.0  0.21791  0.01007  0.97079  1.0000
  C   C2        1.0  0.17936  0.98999  0.99681  1.0000
  C   C3        1.0  0.13863  0.02043  0.99619  1.0000
  N   N1        1.0  0.10213  0.00219  0.02173  1.0000
  C   C4        1.0  0.06436  0.02475  0.03243  1.0000
  O   O1        1.0  0.05284  0.06316  0.03077  1.0000
  N   N2        1.0  0.04250  0.98524  0.03374  1.0000
  C   C5        1.0  0.99523  0.97878  0.02686  1.0000
  C   C6        1.0  0.97892  0.99344  0.98040  1.0000
  N   N3        1.0  0.93025  0.98867  0.97579  1.0000
  C   C7        1.0  0.91449  0.95332  0.94575  1.0000
  C   C8        1.0  0.91110  0.90887  0.96989  1.0000
  C   C9        1.0  0.90075  0.01725  0.99740  1.0000
  C   C10       1.0  0.91473  0.05776  0.01658  1.0000
  C   C11       1.0  0.88528  0.08665  0.03853  1.0000
  C   C12       1.0  0.84045  0.07579  0.04204  1.0000
  C   C13       1.0  0.82555  0.03610  0.02355  1.0000
  Cl  Cl1       1.0  0.77007  0.02192  0.02778  1.0000
  C   C14       1.0  0.85512  0.00739  0.00165  1.0000
  C   C15       1.0  0.07587  0.96755  0.00899  1.0000
  O   O2        1.0  0.07763  0.93974  0.98009  1.0000
  H   H1        1.0  0.20875  0.01534  0.93586  1.0000
  H   H2        1.0  0.22796  0.04215  0.98497  1.0000
  H   H3        1.0  0.24676  0.98776  0.97170  1.0000
  H   H4        1.0  0.18984  0.98405  0.03133  1.0000
  H   H5        1.0  0.17098  0.95738  0.98262  1.0000
  H   H6        1.0  0.14675  0.05324  0.01006  1.0000
  H   H7        1.0  0.12713  0.02551  0.96186  1.0000
  H   H8        1.0  0.97804  0.99733  0.05316  1.0000
  H   H9        1.0  0.98824  0.94329  0.03177  1.0000
  H   H10       1.0  0.98933  0.02756  0.97253  1.0000
  H   H11       1.0  0.99580  0.97285  0.95531  1.0000
  H   H12       1.0  0.88256  0.96195  0.93024  1.0000
  H   H13       1.0  0.93768  0.94973  0.91769  1.0000
  H   H14       1.0  0.94381  0.89778  0.98162  1.0000
  H   H15       1.0  0.88899  0.91087  0.99883  1.0000
  H   H16       1.0  0.89807  0.88329  0.94737  1.0000
  H   H17       1.0  0.94928  0.06852  0.01459  1.0000
  H   H18       1.0  0.89768  0.11764  0.05265  1.0000
  H   H19       1.0  0.81758  0.09813  0.05901  1.0000
  H   H20       1.0  0.84159  0.97655  0.98846  1.0000
