data_image0
_chemical_formula_structural       C3NC6N2C3NH22
_chemical_formula_sum              "C12 N4 H22"
_cell_length_a       30
_cell_length_b       30
_cell_length_c       30
_cell_angle_alpha    90
_cell_angle_beta     90
_cell_angle_gamma    90

_space_group_name_H-M_alt    "P 1"
_space_group_IT_number       1

loop_
  _space_group_symop_operation_xyz
  'x, y, z'

loop_
  _atom_site_type_symbol
  _atom_site_label
  _atom_site_symmetry_multiplicity
  _atom_site_fract_x
  _atom_site_fract_y
  _atom_site_fract_z
  _atom_site_occupancy
  C   C1        1.0  0.11781  0.07661  0.01651  1.0000
  C   C2        1.0  0.11568  0.03382  0.98932  1.0000
  C   C3        1.0  0.08192  0.99981  0.00704  1.0000
  N   N1        1.0  0.03631  0.01652  0.00327  1.0000
  C   C4        1.0  0.00319  0.98432  0.01944  1.0000
  C   C5        1.0  0.99744  0.94185  0.99050  1.0000
  C   C6        1.0  0.97628  0.90482  0.00933  1.0000
  C   C7        1.0  0.97013  0.86664  0.98366  1.0000
  C   C8        1.0  0.98493  0.86620  0.93981  1.0000
  C   C9        1.0  0.00524  0.90418  0.92330  1.0000
  N   N2        1.0  0.01168  0.94166  0.94735  1.0000
  N   N3        1.0  0.96007  0.00695  0.02662  1.0000
  C   C10       1.0  0.95972  0.03598  0.06562  1.0000
  C   C11       1.0  0.94258  0.02868  0.98607  1.0000
  C   C12       1.0  0.89377  0.04506  0.98949  1.0000
  N   N4        1.0  0.88927  0.08958  0.00929  1.0000
  H   H1        1.0  0.12442  0.06946  0.05167  1.0000
  H   H2        1.0  0.14468  0.09796  0.00410  1.0000
  H   H3        1.0  0.08674  0.09557  0.01422  1.0000
  H   H4        1.0  0.14880  0.01834  0.98953  1.0000
  H   H5        1.0  0.10815  0.04194  0.95448  1.0000
  H   H6        1.0  0.08613  0.96907  0.98781  1.0000
  H   H7        1.0  0.08982  0.99212  0.04190  1.0000
  H   H8        1.0  0.03305  0.04458  0.02170  1.0000
  H   H9        1.0  0.01461  0.97191  0.05199  1.0000
  H   H10       1.0  0.96435  0.90597  0.04347  1.0000
  H   H11       1.0  0.95370  0.83762  0.99776  1.0000
  H   H12       1.0  0.98058  0.83706  0.91890  1.0000
  H   H13       1.0  0.01723  0.90561  0.88918  1.0000
  H   H14       1.0  0.92556  0.04312  0.07622  1.0000
  H   H15       1.0  0.97694  0.06765  0.05986  1.0000
  H   H16       1.0  0.97542  0.01965  0.09429  1.0000
  H   H17       1.0  0.96389  0.05650  0.97552  1.0000
  H   H18       1.0  0.94286  0.00453  0.95864  1.0000
  H   H19       1.0  0.87976  0.04650  0.95576  1.0000
  H   H20       1.0  0.87357  0.02113  0.00829  1.0000
  H   H21       1.0  0.85676  0.09920  0.00739  1.0000
  H   H22       1.0  0.90697  0.11182  0.99069  1.0000
