data_image0
_chemical_formula_structural       C3NC5ONC3NC4SC2H21
_chemical_formula_sum              "C17 N3 O1 S1 H21"
_cell_length_a       30
_cell_length_b       30
_cell_length_c       30
_cell_angle_alpha    90
_cell_angle_beta     90
_cell_angle_gamma    90

_space_group_name_H-M_alt    "P 1"
_space_group_IT_number       1

loop_
  _space_group_symop_operation_xyz
  'x, y, z'

loop_
  _atom_site_type_symbol
  _atom_site_label
  _atom_site_symmetry_multiplicity
  _atom_site_fract_x
  _atom_site_fract_y
  _atom_site_fract_z
  _atom_site_occupancy
  C   C1        1.0  0.82806  0.04793  0.07508  1.0000
  C   C2        1.0  0.86542  0.01913  0.05660  1.0000
  C   C3        1.0  0.86711  0.02134  0.00578  1.0000
  N   N1        1.0  0.90264  0.99357  0.98748  1.0000
  C   C4        1.0  0.89716  0.95027  0.97306  1.0000
  C   C5        1.0  0.85384  0.92610  0.97359  1.0000
  C   C6        1.0  0.93819  0.93531  0.95884  1.0000
  C   C7        1.0  0.97011  0.96968  0.96570  1.0000
  C   C8        1.0  0.01797  0.96564  0.95594  1.0000
  O   O1        1.0  0.03073  0.94333  0.92426  1.0000
  N   N2        1.0  0.04421  0.98705  0.98721  1.0000
  C   C9        1.0  0.09032  0.99065  0.98762  1.0000
  C   C10       1.0  0.11630  0.01071  0.01994  1.0000
  C   C11       1.0  0.09766  0.03125  0.05886  1.0000
  N   N3        1.0  0.08146  0.04782  0.08984  1.0000
  C   C12       1.0  0.16332  0.00881  0.01012  1.0000
  C   C13       1.0  0.19885  0.02778  0.03960  1.0000
  C   C14       1.0  0.17071  0.98727  0.96991  1.0000
  C   C15       1.0  0.21402  0.97800  0.94709  1.0000
  S   S1        1.0  0.12211  0.97036  0.94553  1.0000
  C   C16       1.0  0.94664  0.00653  0.98174  1.0000
  C   C17       1.0  0.96213  0.05294  0.99111  1.0000
  H   H1        1.0  0.79563  0.03690  0.06252  1.0000
  H   H2        1.0  0.83270  0.08290  0.06576  1.0000
  H   H3        1.0  0.82738  0.04591  0.11150  1.0000
  H   H4        1.0  0.86052  0.98459  0.06752  1.0000
  H   H5        1.0  0.89723  0.03017  0.07079  1.0000
  H   H6        1.0  0.83547  0.01032  0.99127  1.0000
  H   H7        1.0  0.87223  0.05555  0.99423  1.0000
  H   H8        1.0  0.83033  0.94134  0.95022  1.0000
  H   H9        1.0  0.83914  0.92636  0.00697  1.0000
  H   H10       1.0  0.85831  0.89124  0.96374  1.0000
  H   H11       1.0  0.94516  0.90247  0.94548  1.0000
  H   H12       1.0  0.02765  0.99977  0.01370  1.0000
  H   H13       1.0  0.23230  0.02157  0.02646  1.0000
  H   H14       1.0  0.19463  0.06389  0.04281  1.0000
  H   H15       1.0  0.19704  0.01285  0.07286  1.0000
  H   H16       1.0  0.20965  0.96077  0.91521  1.0000
  H   H17       1.0  0.23170  0.00924  0.94050  1.0000
  H   H18       1.0  0.23514  0.95706  0.96825  1.0000
  H   H19       1.0  0.93914  0.07772  0.97744  1.0000
  H   H20       1.0  0.99451  0.05962  0.97574  1.0000
  H   H21       1.0  0.96521  0.05830  0.02706  1.0000
