data_image0
_chemical_formula_structural       C3NC3OC6H19
_chemical_formula_sum              "C12 N1 O1 H19"
_cell_length_a       30
_cell_length_b       30
_cell_length_c       30
_cell_angle_alpha    90
_cell_angle_beta     90
_cell_angle_gamma    90

_space_group_name_H-M_alt    "P 1"
_space_group_IT_number       1

loop_
  _space_group_symop_operation_xyz
  'x, y, z'

loop_
  _atom_site_type_symbol
  _atom_site_label
  _atom_site_symmetry_multiplicity
  _atom_site_fract_x
  _atom_site_fract_y
  _atom_site_fract_z
  _atom_site_occupancy
  C   C1        1.0  0.84426  0.04677  0.99855  1.0000
  C   C2        1.0  0.88527  0.01825  0.00736  1.0000
  C   C3        1.0  0.92815  0.04550  0.00241  1.0000
  N   N1        1.0  0.96844  0.02051  0.01375  1.0000
  C   C4        1.0  0.98282  0.98746  0.98002  1.0000
  C   C5        1.0  0.00162  0.00949  0.93803  1.0000
  C   C6        1.0  0.01639  0.95289  0.00024  1.0000
  O   O1        1.0  0.99807  0.93562  0.04109  1.0000
  C   C7        1.0  0.06388  0.96840  0.00830  1.0000
  C   C8        1.0  0.07360  0.00411  0.03687  1.0000
  C   C9        1.0  0.11759  0.01741  0.04425  1.0000
  C   C10       1.0  0.15250  0.99508  0.02335  1.0000
  C   C11       1.0  0.14346  0.95939  0.99506  1.0000
  C   C12       1.0  0.09948  0.94608  0.98763  1.0000
  H   H1        1.0  0.81396  0.02679  0.00225  1.0000
  H   H2        1.0  0.84238  0.07462  0.02205  1.0000
  H   H3        1.0  0.84482  0.06034  0.96469  1.0000
  H   H4        1.0  0.88307  0.00440  0.04112  1.0000
  H   H5        1.0  0.88503  0.99013  0.98408  1.0000
  H   H6        1.0  0.92645  0.07386  0.02543  1.0000
  H   H7        1.0  0.93043  0.06004  0.96901  1.0000
  H   H8        1.0  0.96310  0.00308  0.04265  1.0000
  H   H9        1.0  0.95354  0.96775  0.97049  1.0000
  H   H10       1.0  0.01489  0.98432  0.91514  1.0000
  H   H11       1.0  0.97583  0.02787  0.91991  1.0000
  H   H12       1.0  0.02851  0.03290  0.94587  1.0000
  H   H13       1.0  0.01735  0.92441  0.97729  1.0000
  H   H14       1.0  0.02310  0.92968  0.06085  1.0000
  H   H15       1.0  0.04688  0.02208  0.05355  1.0000
  H   H16       1.0  0.12451  0.04532  0.06630  1.0000
  H   H17       1.0  0.18671  0.00550  0.02908  1.0000
  H   H18       1.0  0.17068  0.94190  0.97875  1.0000
  H   H19       1.0  0.09325  0.91806  0.96547  1.0000
