data_image0
_chemical_formula_structural       C3NC7OC9NC3H32
_chemical_formula_sum              "C22 N2 O1 H32"
_cell_length_a       30
_cell_length_b       30
_cell_length_c       30
_cell_angle_alpha    90
_cell_angle_beta     90
_cell_angle_gamma    90

_space_group_name_H-M_alt    "P 1"
_space_group_IT_number       1

loop_
  _space_group_symop_operation_xyz
  'x, y, z'

loop_
  _atom_site_type_symbol
  _atom_site_label
  _atom_site_symmetry_multiplicity
  _atom_site_fract_x
  _atom_site_fract_y
  _atom_site_fract_z
  _atom_site_occupancy
  C   C1        1.0  0.11655  0.03121  0.10903  1.0000
  C   C2        1.0  0.08733  0.02063  0.06901  1.0000
  C   C3        1.0  0.08407  0.06053  0.03740  1.0000
  N   N1        1.0  0.05603  0.05179  0.99835  1.0000
  C   C4        1.0  0.07780  0.04816  0.95466  1.0000
  C   C5        1.0  0.09764  0.00256  0.94263  1.0000
  C   C6        1.0  0.07013  0.96151  0.95482  1.0000
  C   C7        1.0  0.10353  0.92375  0.94970  1.0000
  C   C8        1.0  0.14640  0.94272  0.96924  1.0000
  C   C9        1.0  0.14407  0.99310  0.96193  1.0000
  C   C10       1.0  0.00970  0.05246  0.00492  1.0000
  O   O1        1.0  0.99374  0.05874  0.04227  1.0000
  C   C11       1.0  0.98033  0.04485  0.96390  1.0000
  C   C12       1.0  0.93203  0.03744  0.97508  1.0000
  C   C13       1.0  0.89668  0.06577  0.96691  1.0000
  C   C14       1.0  0.85697  0.04463  0.98103  1.0000
  C   C15       1.0  0.81177  0.05747  0.98036  1.0000
  C   C16       1.0  0.77928  0.02844  0.99674  1.0000
  C   C17       1.0  0.79136  0.98706  0.01363  1.0000
  C   C18       1.0  0.83602  0.97370  0.01471  1.0000
  C   C19       1.0  0.86878  0.00298  0.99826  1.0000
  N   N2        1.0  0.91490  0.99942  0.99516  1.0000
  C   C20       1.0  0.94164  0.96143  0.01043  1.0000
  C   C21       1.0  0.93256  0.91905  0.98359  1.0000
  C   C22       1.0  0.93856  0.95375  0.06074  1.0000
  H   H1        1.0  0.10285  0.05908  0.12817  1.0000
  H   H2        1.0  0.15040  0.04001  0.09860  1.0000
  H   H3        1.0  0.11870  0.00229  0.13114  1.0000
  H   H4        1.0  0.05419  0.01076  0.08074  1.0000
  H   H5        1.0  0.10106  0.99170  0.05156  1.0000
  H   H6        1.0  0.11730  0.07087  0.02635  1.0000
  H   H7        1.0  0.06987  0.08908  0.05530  1.0000
  H   H8        1.0  0.05374  0.05695  0.92873  1.0000
  H   H9        1.0  0.10359  0.07400  0.95269  1.0000
  H   H10       1.0  0.10170  0.00257  0.90617  1.0000
  H   H11       1.0  0.04144  0.95702  0.93283  1.0000
  H   H12       1.0  0.05825  0.96279  0.98926  1.0000
  H   H13       1.0  0.10833  0.91588  0.91430  1.0000
  H   H14       1.0  0.09280  0.89331  0.96672  1.0000
  H   H15       1.0  0.14805  0.93560  0.00506  1.0000
  H   H16       1.0  0.17597  0.92799  0.95377  1.0000
  H   H17       1.0  0.15041  0.01048  0.99319  1.0000
  H   H18       1.0  0.16986  0.00396  0.93855  1.0000
  H   H19       1.0  0.99230  0.01624  0.94480  1.0000
  H   H20       1.0  0.98310  0.07453  0.94276  1.0000
  H   H21       1.0  0.89909  0.09843  0.95180  1.0000
  H   H22       1.0  0.80223  0.08979  0.96714  1.0000
  H   H23       1.0  0.74445  0.03837  0.99628  1.0000
  H   H24       1.0  0.76580  0.96475  0.02634  1.0000
  H   H25       1.0  0.84444  0.94126  0.02816  1.0000
  H   H26       1.0  0.97646  0.96991  0.00388  1.0000
  H   H27       1.0  0.95660  0.89305  0.99242  1.0000
  H   H28       1.0  0.89925  0.90563  0.98957  1.0000
  H   H29       1.0  0.93571  0.92545  0.94779  1.0000
  H   H30       1.0  0.90580  0.94163  0.07107  1.0000
  H   H31       1.0  0.96315  0.92890  0.07125  1.0000
  H   H32       1.0  0.94526  0.98460  0.07908  1.0000
