data_image0
_chemical_formula_structural       C3NC7NSCO2H22
_chemical_formula_sum              "C11 N2 S1 O2 H22"
_cell_length_a       30
_cell_length_b       30
_cell_length_c       30
_cell_angle_alpha    90
_cell_angle_beta     90
_cell_angle_gamma    90

_space_group_name_H-M_alt    "P 1"
_space_group_IT_number       1

loop_
  _space_group_symop_operation_xyz
  'x, y, z'

loop_
  _atom_site_type_symbol
  _atom_site_label
  _atom_site_symmetry_multiplicity
  _atom_site_fract_x
  _atom_site_fract_y
  _atom_site_fract_z
  _atom_site_occupancy
  C   C1        1.0  0.10381  0.02382  0.04269  1.0000
  C   C2        1.0  0.11955  0.98184  0.01903  1.0000
  C   C3        1.0  0.08148  0.95419  0.99912  1.0000
  N   N1        1.0  0.05757  0.97714  0.96277  1.0000
  C   C4        1.0  0.08528  0.98912  0.92432  1.0000
  C   C5        1.0  0.01759  0.99973  0.96981  1.0000
  C   C6        1.0  0.98093  0.98892  0.99314  1.0000
  C   C7        1.0  0.97042  0.94560  0.01579  1.0000
  C   C8        1.0  0.92412  0.92858  0.00320  1.0000
  C   C9        1.0  0.88899  0.96474  0.00929  1.0000
  C   C10       1.0  0.90056  0.00621  0.98226  1.0000
  N   N2        1.0  0.94664  0.02271  0.99137  1.0000
  S   S1        1.0  0.95111  0.06062  0.03447  1.0000
  C   C11       1.0  0.92794  0.10887  0.00886  1.0000
  O   O1        1.0  0.92160  0.04703  0.07018  1.0000
  O   O2        1.0  0.99755  0.07062  0.04306  1.0000
  H   H1        1.0  0.07884  0.01598  0.06810  1.0000
  H   H2        1.0  0.13194  0.04018  0.05919  1.0000
  H   H3        1.0  0.08943  0.04770  0.01919  1.0000
  H   H4        1.0  0.14394  0.99085  0.99338  1.0000
  H   H5        1.0  0.13729  0.96098  0.04326  1.0000
  H   H6        1.0  0.05899  0.94460  0.02616  1.0000
  H   H7        1.0  0.09522  0.92300  0.98588  1.0000
  H   H8        1.0  0.10186  0.02117  0.92983  1.0000
  H   H9        1.0  0.06480  0.99176  0.89419  1.0000
  H   H10       1.0  0.11067  0.96367  0.91796  1.0000
  H   H11       1.0  0.01762  0.03128  0.95175  1.0000
  H   H12       1.0  0.97231  0.95046  0.05198  1.0000
  H   H13       1.0  0.99445  0.91960  0.00702  1.0000
  H   H14       1.0  0.92417  0.91738  0.96837  1.0000
  H   H15       1.0  0.91570  0.89954  0.02369  1.0000
  H   H16       1.0  0.88610  0.97294  0.04475  1.0000
  H   H17       1.0  0.85640  0.95205  0.99874  1.0000
  H   H18       1.0  0.89858  0.99861  0.94652  1.0000
  H   H19       1.0  0.87581  0.03229  0.98824  1.0000
  H   H20       1.0  0.94669  0.11625  0.97855  1.0000
  H   H21       1.0  0.89277  0.10342  0.00156  1.0000
  H   H22       1.0  0.93126  0.13654  0.03231  1.0000
