data_image0
_chemical_formula_structural       C3NC7NCNH15
_chemical_formula_sum              "C11 N3 H15"
_cell_length_a       30
_cell_length_b       30
_cell_length_c       30
_cell_angle_alpha    90
_cell_angle_beta     90
_cell_angle_gamma    90

_space_group_name_H-M_alt    "P 1"
_space_group_IT_number       1

loop_
  _space_group_symop_operation_xyz
  'x, y, z'

loop_
  _atom_site_type_symbol
  _atom_site_label
  _atom_site_symmetry_multiplicity
  _atom_site_fract_x
  _atom_site_fract_y
  _atom_site_fract_z
  _atom_site_occupancy
  C   C1        1.0  0.92483  0.98501  0.95087  1.0000
  C   C2        1.0  0.91426  0.98218  0.00038  1.0000
  C   C3        1.0  0.95255  0.96349  0.02866  1.0000
  N   N1        1.0  0.99045  0.99454  0.03163  1.0000
  C   C4        1.0  0.02610  0.99005  0.00121  1.0000
  C   C5        1.0  0.03688  0.95051  0.97854  1.0000
  C   C6        1.0  0.07304  0.94824  0.94911  1.0000
  C   C7        1.0  0.09952  0.98548  0.94180  1.0000
  C   C8        1.0  0.08990  0.02492  0.96412  1.0000
  C   C9        1.0  0.05372  0.02717  0.99384  1.0000
  C   C10       1.0  0.04343  0.07067  0.01653  1.0000
  N   N2        1.0  0.01077  0.06935  0.05267  1.0000
  C   C11       1.0  0.98780  0.03326  0.05645  1.0000
  N   N3        1.0  0.95764  0.03305  0.09041  1.0000
  H   H1        1.0  0.93575  0.95271  0.93789  1.0000
  H   H2        1.0  0.89505  0.99507  0.93232  1.0000
  H   H3        1.0  0.95079  0.00970  0.94414  1.0000
  H   H4        1.0  0.88526  0.96032  0.00461  1.0000
  H   H5        1.0  0.90427  0.01521  0.01237  1.0000
  H   H6        1.0  0.93969  0.95685  0.06225  1.0000
  H   H7        1.0  0.96168  0.93037  0.01653  1.0000
  H   H8        1.0  0.01816  0.92000  0.98341  1.0000
  H   H9        1.0  0.08051  0.91713  0.93210  1.0000
  H   H10       1.0  0.12756  0.98381  0.91895  1.0000
  H   H11       1.0  0.11057  0.05415  0.95841  1.0000
  H   H12       1.0  0.03166  0.09443  0.99136  1.0000
  H   H13       1.0  0.07448  0.08400  0.03046  1.0000
  H   H14       1.0  0.96215  0.00665  0.11092  1.0000
  H   H15       1.0  0.96154  0.06170  0.10806  1.0000
