data_image0
_chemical_formula_structural       C3NC5NCOCONCNOC3OH22
_chemical_formula_sum              "C14 N4 O4 H22"
_cell_length_a       30
_cell_length_b       30
_cell_length_c       30
_cell_angle_alpha    90
_cell_angle_beta     90
_cell_angle_gamma    90

_space_group_name_H-M_alt    "P 1"
_space_group_IT_number       1

loop_
  _space_group_symop_operation_xyz
  'x, y, z'

loop_
  _atom_site_type_symbol
  _atom_site_label
  _atom_site_symmetry_multiplicity
  _atom_site_fract_x
  _atom_site_fract_y
  _atom_site_fract_z
  _atom_site_occupancy
  C   C1        1.0  0.79917  0.97734  0.95713  1.0000
  C   C2        1.0  0.83914  0.98112  0.92611  1.0000
  C   C3        1.0  0.88368  0.98566  0.95097  1.0000
  N   N1        1.0  0.88570  0.02421  0.98088  1.0000
  C   C4        1.0  0.88761  0.06670  0.95721  1.0000
  C   C5        1.0  0.91962  0.02060  0.01611  1.0000
  C   C6        1.0  0.96876  0.02871  0.00419  1.0000
  C   C7        1.0  0.98989  0.99505  0.97240  1.0000
  C   C8        1.0  0.03955  0.99984  0.98194  1.0000
  N   N2        1.0  0.04183  0.01207  0.02874  1.0000
  C   C9        1.0  0.07806  0.00756  0.05665  1.0000
  O   O1        1.0  0.07594  0.01436  0.09706  1.0000
  C   C10       1.0  0.12364  0.99348  0.03694  1.0000
  O   O2        1.0  0.13124  0.99532  0.99700  1.0000
  N   N3        1.0  0.15228  0.97977  0.06995  1.0000
  C   C11       1.0  0.19522  0.96522  0.06368  1.0000
  N   N4        1.0  0.22000  0.95337  0.09879  1.0000
  O   O3        1.0  0.26086  0.94046  0.08178  1.0000
  C   C12       1.0  0.26026  0.94461  0.03684  1.0000
  C   C13       1.0  0.21943  0.96020  0.02361  1.0000
  C   C14       1.0  0.99858  0.02443  0.04558  1.0000
  O   O4        1.0  0.00184  0.06591  0.06740  1.0000
  H   H1        1.0  0.79440  0.00785  0.97652  1.0000
  H   H2        1.0  0.76879  0.97162  0.93775  1.0000
  H   H3        1.0  0.80317  0.94946  0.98031  1.0000
  H   H4        1.0  0.84062  0.95104  0.90536  1.0000
  H   H5        1.0  0.83419  0.00911  0.90318  1.0000
  H   H6        1.0  0.88835  0.95490  0.97022  1.0000
  H   H7        1.0  0.91052  0.98674  0.92626  1.0000
  H   H8        1.0  0.91628  0.06871  0.93471  1.0000
  H   H9        1.0  0.85735  0.07216  0.93757  1.0000
  H   H10       1.0  0.88947  0.09456  0.98076  1.0000
  H   H11       1.0  0.91041  0.04468  0.04213  1.0000
  H   H12       1.0  0.91618  0.98799  0.03242  1.0000
  H   H13       1.0  0.97253  0.06239  0.99032  1.0000
  H   H14       1.0  0.97891  0.96110  0.98038  1.0000
  H   H15       1.0  0.98251  0.00173  0.93735  1.0000
  H   H16       1.0  0.05740  0.96877  0.97530  1.0000
  H   H17       1.0  0.05425  0.02701  0.96248  1.0000
  H   H18       1.0  0.14179  0.98148  0.10208  1.0000
  H   H19       1.0  0.29062  0.93546  0.01980  1.0000
  H   H20       1.0  0.20889  0.96700  0.98987  1.0000
  H   H21       1.0  0.98709  0.99886  0.06902  1.0000
  H   H22       1.0  0.02400  0.06138  0.09080  1.0000
