data_image0
_chemical_formula_structural       C3NC5NSO2C6NC2NC2NCH33
_chemical_formula_sum              "C19 N5 S1 O2 H33"
_cell_length_a       30
_cell_length_b       30
_cell_length_c       30
_cell_angle_alpha    90
_cell_angle_beta     90
_cell_angle_gamma    90

_space_group_name_H-M_alt    "P 1"
_space_group_IT_number       1

loop_
  _space_group_symop_operation_xyz
  'x, y, z'

loop_
  _atom_site_type_symbol
  _atom_site_label
  _atom_site_symmetry_multiplicity
  _atom_site_fract_x
  _atom_site_fract_y
  _atom_site_fract_z
  _atom_site_occupancy
  C   C1        1.0  0.74108  0.99818  0.98234  1.0000
  C   C2        1.0  0.77572  0.00785  0.01813  1.0000
  C   C3        1.0  0.81953  0.02438  0.99755  1.0000
  N   N1        1.0  0.85274  0.03724  0.03117  1.0000
  C   C4        1.0  0.86644  0.99895  0.05912  1.0000
  C   C5        1.0  0.91294  0.00375  0.08039  1.0000
  C   C6        1.0  0.94811  0.00909  0.04418  1.0000
  C   C7        1.0  0.98886  0.99115  0.04972  1.0000
  C   C8        1.0  0.02890  0.98962  0.01931  1.0000
  N   N2        1.0  0.06296  0.01647  0.04208  1.0000
  S   S1        1.0  0.11565  0.99864  0.04245  1.0000
  O   O1        1.0  0.13956  0.02999  0.07019  1.0000
  O   O2        1.0  0.11479  0.95149  0.05270  1.0000
  C   C9        1.0  0.13355  0.00552  0.98584  1.0000
  C   C10       1.0  0.18083  0.98859  0.97815  1.0000
  C   C11       1.0  0.21612  0.01911  0.99616  1.0000
  C   C12       1.0  0.26389  0.00358  0.99734  1.0000
  C   C13       1.0  0.23845  0.00934  0.04006  1.0000
  C   C14       1.0  0.02400  0.00770  0.97266  1.0000
  N   N3        1.0  0.03659  0.04792  0.95926  1.0000
  C   C15       1.0  0.02630  0.05018  0.91486  1.0000
  C   C16       1.0  0.00701  0.01117  0.90077  1.0000
  N   N4        1.0  0.00550  0.98437  0.93770  1.0000
  C   C17       1.0  0.98644  0.93995  0.93877  1.0000
  C   C18       1.0  0.02064  0.90426  0.92783  1.0000
  N   N5        1.0  0.93330  0.03267  0.00746  1.0000
  C   C19       1.0  0.89196  0.05788  0.01033  1.0000
  H   H1        1.0  0.71008  0.98647  0.99760  1.0000
  H   H2        1.0  0.73353  0.02816  0.96296  1.0000
  H   H3        1.0  0.75288  0.97236  0.95940  1.0000
  H   H4        1.0  0.78117  0.97733  0.03743  1.0000
  H   H5        1.0  0.76245  0.03304  0.04106  1.0000
  H   H6        1.0  0.81155  0.05366  0.97708  1.0000
  H   H7        1.0  0.83308  0.99897  0.97496  1.0000
  H   H8        1.0  0.86634  0.96805  0.03943  1.0000
  H   H9        1.0  0.84194  0.99470  0.08590  1.0000
  H   H10       1.0  0.91360  0.03302  0.10232  1.0000
  H   H11       1.0  0.91963  0.97435  0.10106  1.0000
  H   H12       1.0  0.99515  0.97385  0.08107  1.0000
  H   H13       1.0  0.03934  0.95469  0.01743  1.0000
  H   H14       1.0  0.06004  0.04962  0.03464  1.0000
  H   H15       1.0  0.13034  0.04083  0.97733  1.0000
  H   H16       1.0  0.11106  0.98566  0.96519  1.0000
  H   H17       1.0  0.18611  0.98604  0.94206  1.0000
  H   H18       1.0  0.18466  0.95485  0.99166  1.0000
  H   H19       1.0  0.21057  0.05372  0.98721  1.0000
  H   H20       1.0  0.27157  0.96988  0.98677  1.0000
  H   H21       1.0  0.28975  0.02767  0.98977  1.0000
  H   H22       1.0  0.22879  0.97968  0.05835  1.0000
  H   H23       1.0  0.24657  0.03744  0.06131  1.0000
  H   H24       1.0  0.03322  0.07977  0.89539  1.0000
  H   H25       1.0  0.99445  0.00070  0.86865  1.0000
  H   H26       1.0  0.95908  0.93912  0.91457  1.0000
  H   H27       1.0  0.97190  0.93429  0.97171  1.0000
  H   H28       1.0  0.03464  0.90925  0.89449  1.0000
  H   H29       1.0  0.00522  0.87121  0.92885  1.0000
  H   H30       1.0  0.04831  0.90466  0.95163  1.0000
  H   H31       1.0  0.95783  0.04951  0.99098  1.0000
  H   H32       1.0  0.89917  0.08810  0.02970  1.0000
  H   H33       1.0  0.88414  0.07033  0.97683  1.0000
