data_image0
_chemical_formula_structural       C3NCOC3NCSC4ONC4N2C4H23
_chemical_formula_sum              "C20 N5 O2 S1 H23"
_cell_length_a       30
_cell_length_b       30
_cell_length_c       30
_cell_angle_alpha    90
_cell_angle_beta     90
_cell_angle_gamma    90

_space_group_name_H-M_alt    "P 1"
_space_group_IT_number       1

loop_
  _space_group_symop_operation_xyz
  'x, y, z'

loop_
  _atom_site_type_symbol
  _atom_site_label
  _atom_site_symmetry_multiplicity
  _atom_site_fract_x
  _atom_site_fract_y
  _atom_site_fract_z
  _atom_site_occupancy
  C   C1        1.0  0.12159  0.04647  0.92746  1.0000
  C   C2        1.0  0.15123  0.04127  0.96830  1.0000
  C   C3        1.0  0.15736  0.99273  0.98287  1.0000
  N   N1        1.0  0.11891  0.97396  0.00533  1.0000
  C   C4        1.0  0.08461  0.95198  0.98249  1.0000
  O   O1        1.0  0.08240  0.94395  0.94259  1.0000
  C   C5        1.0  0.05122  0.93709  0.01776  1.0000
  C   C6        1.0  0.00238  0.94324  0.00701  1.0000
  C   C7        1.0  0.97926  0.90410  0.99769  1.0000
  N   N2        1.0  0.93587  0.90155  0.98669  1.0000
  C   C8        1.0  0.91159  0.93945  0.98586  1.0000
  S   S1        1.0  0.85674  0.93256  0.96333  1.0000
  C   C9        1.0  0.86075  0.87755  0.93862  1.0000
  C   C10       1.0  0.92966  0.98066  0.99812  1.0000
  C   C11       1.0  0.97689  0.98274  0.00474  1.0000
  C   C12       1.0  0.99856  0.02826  0.00552  1.0000
  O   O2        1.0  0.03882  0.03382  0.00884  1.0000
  N   N3        1.0  0.97224  0.06565  0.00106  1.0000
  C   C13       1.0  0.92703  0.06133  0.00240  1.0000
  C   C14       1.0  0.90400  0.02180  0.00282  1.0000
  C   C15       1.0  0.86028  0.03505  0.01613  1.0000
  C   C16       1.0  0.82181  0.00846  0.03241  1.0000
  N   N4        1.0  0.85569  0.07965  0.01552  1.0000
  N   N5        1.0  0.89664  0.09487  0.00571  1.0000
  C   C17       1.0  0.90403  0.14232  0.00381  1.0000
  C   C18       1.0  0.06989  0.95860  0.05899  1.0000
  C   C19       1.0  0.10903  0.97827  0.05005  1.0000
  C   C20       1.0  0.13820  0.00230  0.08213  1.0000
  H   H1        1.0  0.08737  0.03599  0.93420  1.0000
  H   H2        1.0  0.13432  0.02685  0.89946  1.0000
  H   H3        1.0  0.12058  0.08146  0.91712  1.0000
  H   H4        1.0  0.13777  0.06140  0.99563  1.0000
  H   H5        1.0  0.18409  0.05500  0.96011  1.0000
  H   H6        1.0  0.18611  0.99020  0.00527  1.0000
  H   H7        1.0  0.16500  0.97204  0.95371  1.0000
  H   H8        1.0  0.05765  0.90124  0.02236  1.0000
  H   H9        1.0  0.99584  0.87179  0.99787  1.0000
  H   H10       1.0  0.82927  0.86998  0.92187  1.0000
  H   H11       1.0  0.86640  0.85213  0.96414  1.0000
  H   H12       1.0  0.88743  0.87635  0.91379  1.0000
  H   H13       1.0  0.98794  0.09544  0.00248  1.0000
  H   H14       1.0  0.83273  0.97739  0.04806  1.0000
  H   H15       1.0  0.79866  0.00115  0.00521  1.0000
  H   H16       1.0  0.80325  0.02698  0.05788  1.0000
  H   H17       1.0  0.87628  0.15779  0.98597  1.0000
  H   H18       1.0  0.90586  0.15494  0.03793  1.0000
  H   H19       1.0  0.93507  0.14919  0.98608  1.0000
  H   H20       1.0  0.05424  0.95732  0.09137  1.0000
  H   H21       1.0  0.14228  0.03722  0.07248  1.0000
  H   H22       1.0  0.17112  0.98669  0.08387  1.0000
  H   H23       1.0  0.12405  0.00179  0.11578  1.0000
