data_image0
_chemical_formula_structural       C3OC5NCONC2OC5NH25
_chemical_formula_sum              "C16 O3 N3 H25"
_cell_length_a       30
_cell_length_b       30
_cell_length_c       30
_cell_angle_alpha    90
_cell_angle_beta     90
_cell_angle_gamma    90

_space_group_name_H-M_alt    "P 1"
_space_group_IT_number       1

loop_
  _space_group_symop_operation_xyz
  'x, y, z'

loop_
  _atom_site_type_symbol
  _atom_site_label
  _atom_site_symmetry_multiplicity
  _atom_site_fract_x
  _atom_site_fract_y
  _atom_site_fract_z
  _atom_site_occupancy
  C   C1        1.0  0.27672  0.06453  0.97783  1.0000
  C   C2        1.0  0.27464  0.03314  0.01763  1.0000
  C   C3        1.0  0.22685  0.02058  0.02995  1.0000
  O   O1        1.0  0.20769  0.99607  0.99388  1.0000
  C   C4        1.0  0.16434  0.98288  0.00185  1.0000
  C   C5        1.0  0.14406  0.95831  0.96842  1.0000
  C   C6        1.0  0.10028  0.94425  0.97476  1.0000
  C   C7        1.0  0.07822  0.95498  0.01433  1.0000
  C   C8        1.0  0.03084  0.94146  0.02251  1.0000
  N   N1        1.0  0.00060  0.97706  0.01078  1.0000
  C   C9        1.0  0.95609  0.97219  0.01983  1.0000
  O   O2        1.0  0.94010  0.94053  0.03983  1.0000
  N   N2        1.0  0.93212  0.00746  0.00332  1.0000
  C   C10       1.0  0.88472  0.01123  0.01257  1.0000
  C   C11       1.0  0.85625  0.97558  0.98955  1.0000
  O   O3        1.0  0.80998  0.98676  0.99187  1.0000
  C   C12       1.0  0.79556  0.01334  0.95517  1.0000
  C   C13       1.0  0.74818  0.02800  0.96130  1.0000
  C   C14       1.0  0.72964  0.03936  0.00665  1.0000
  C   C15       1.0  0.71384  0.99816  0.98271  1.0000
  C   C16       1.0  0.10153  0.98003  0.04565  1.0000
  N   N3        1.0  0.14400  0.99416  0.04034  1.0000
  H   H1        1.0  0.26260  0.04906  0.94795  1.0000
  H   H2        1.0  0.25837  0.09534  0.98454  1.0000
  H   H3        1.0  0.31137  0.07335  0.97057  1.0000
  H   H4        1.0  0.29073  0.04904  0.04630  1.0000
  H   H5        1.0  0.29354  0.00294  0.00955  1.0000
  H   H6        1.0  0.20758  0.05098  0.03647  1.0000
  H   H7        1.0  0.22768  0.99984  0.06005  1.0000
  H   H8        1.0  0.16205  0.95032  0.93811  1.0000
  H   H9        1.0  0.08375  0.92498  0.94890  1.0000
  H   H10       1.0  0.02214  0.91201  0.00268  1.0000
  H   H11       1.0  0.02588  0.93243  0.05759  1.0000
  H   H12       1.0  0.00710  0.99337  0.98207  1.0000
  H   H13       1.0  0.94938  0.03637  0.00370  1.0000
  H   H14       1.0  0.87958  0.00988  0.04872  1.0000
  H   H15       1.0  0.87459  0.04460  0.00179  1.0000
  H   H16       1.0  0.86654  0.97053  0.95483  1.0000
  H   H17       1.0  0.86034  0.94359  0.00661  1.0000
  H   H18       1.0  0.79812  0.99371  0.92447  1.0000
  H   H19       1.0  0.81671  0.04291  0.95190  1.0000
  H   H20       1.0  0.73730  0.04830  0.93342  1.0000
  H   H21       1.0  0.75067  0.03479  0.03570  1.0000
  H   H22       1.0  0.70686  0.06727  0.00913  1.0000
  H   H23       1.0  0.68039  0.99828  0.96907  1.0000
  H   H24       1.0  0.72438  0.96613  0.99572  1.0000
  H   H25       1.0  0.08610  0.98990  0.07694  1.0000
