data_image0
_chemical_formula_structural       C3SO2NC5ONC4OC2H20
_chemical_formula_sum              "C14 S1 O4 N2 H20"
_cell_length_a       30
_cell_length_b       30
_cell_length_c       30
_cell_angle_alpha    90
_cell_angle_beta     90
_cell_angle_gamma    90

_space_group_name_H-M_alt    "P 1"
_space_group_IT_number       1

loop_
  _space_group_symop_operation_xyz
  'x, y, z'

loop_
  _atom_site_type_symbol
  _atom_site_label
  _atom_site_symmetry_multiplicity
  _atom_site_fract_x
  _atom_site_fract_y
  _atom_site_fract_z
  _atom_site_occupancy
  C   C1        1.0  0.13931  0.94757  0.04906  1.0000
  C   C2        1.0  0.14419  0.99375  0.02883  1.0000
  C   C3        1.0  0.10538  0.00459  0.99791  1.0000
  S   S1        1.0  0.11114  0.05926  0.97440  1.0000
  O   O1        1.0  0.15035  0.05908  0.94626  1.0000
  O   O2        1.0  0.10544  0.09190  0.00938  1.0000
  N   N1        1.0  0.06754  0.06152  0.93911  1.0000
  C   C4        1.0  0.02321  0.05826  0.95560  1.0000
  C   C5        1.0  0.00617  0.08983  0.98525  1.0000
  C   C6        1.0  0.96243  0.08611  0.00083  1.0000
  C   C7        1.0  0.93591  0.05030  0.98716  1.0000
  C   C8        1.0  0.88985  0.04743  0.00441  1.0000
  O   O3        1.0  0.86449  0.07921  0.00001  1.0000
  N   N2        1.0  0.87628  0.00959  0.02645  1.0000
  C   C9        1.0  0.90459  0.97575  0.04603  1.0000
  C   C10       1.0  0.89439  0.92893  0.02904  1.0000
  C   C11       1.0  0.89677  0.92180  0.97844  1.0000
  C   C12       1.0  0.93748  0.94239  0.95579  1.0000
  O   O4        1.0  0.92585  0.98618  0.94085  1.0000
  C   C13       1.0  0.95299  0.01882  0.95729  1.0000
  C   C14       1.0  0.99648  0.02300  0.94113  1.0000
  H   H1        1.0  0.16746  0.94040  0.07113  1.0000
  H   H2        1.0  0.10863  0.94505  0.06866  1.0000
  H   H3        1.0  0.13846  0.92195  0.02309  1.0000
  H   H4        1.0  0.14613  0.01852  0.05563  1.0000
  H   H5        1.0  0.17574  0.99561  0.01049  1.0000
  H   H6        1.0  0.07390  0.00368  0.01631  1.0000
  H   H7        1.0  0.10402  0.98091  0.97018  1.0000
  H   H8        1.0  0.07438  0.04764  0.90883  1.0000
  H   H9        1.0  0.02629  0.11811  0.99579  1.0000
  H   H10       1.0  0.94901  0.11119  0.02333  1.0000
  H   H11       1.0  0.84444  0.01189  0.03752  1.0000
  H   H12       1.0  0.89831  0.97685  0.08201  1.0000
  H   H13       1.0  0.93986  0.98380  0.04176  1.0000
  H   H14       1.0  0.91777  0.90585  0.04512  1.0000
  H   H15       1.0  0.86101  0.91904  0.04026  1.0000
  H   H16       1.0  0.86618  0.93480  0.96319  1.0000
  H   H17       1.0  0.89704  0.88571  0.97262  1.0000
  H   H18       1.0  0.94545  0.92311  0.92581  1.0000
  H   H19       1.0  0.96687  0.94146  0.97756  1.0000
  H   H20       1.0  0.00880  0.99916  0.91685  1.0000
