data_image0
_chemical_formula_structural       C3SC2ONC3NCN2CH18
_chemical_formula_sum              "C10 S1 O1 N4 H18"
_cell_length_a       30
_cell_length_b       30
_cell_length_c       30
_cell_angle_alpha    90
_cell_angle_beta     90
_cell_angle_gamma    90

_space_group_name_H-M_alt    "P 1"
_space_group_IT_number       1

loop_
  _space_group_symop_operation_xyz
  'x, y, z'

loop_
  _atom_site_type_symbol
  _atom_site_label
  _atom_site_symmetry_multiplicity
  _atom_site_fract_x
  _atom_site_fract_y
  _atom_site_fract_z
  _atom_site_occupancy
  C   C1        1.0  0.17741  0.98149  0.95569  1.0000
  C   C2        1.0  0.14266  0.98891  0.99190  1.0000
  C   C3        1.0  0.10649  0.02103  0.97617  1.0000
  S   S1        1.0  0.06600  0.03303  0.01982  1.0000
  C   C4        1.0  0.03425  0.98127  0.01873  1.0000
  C   C5        1.0  0.99822  0.98173  0.05458  1.0000
  O   O1        1.0  0.00501  0.96158  0.08984  1.0000
  N   N1        1.0  0.95787  0.00344  0.04614  1.0000
  C   C6        1.0  0.92740  0.00794  0.08393  1.0000
  C   C7        1.0  0.95161  0.03518  0.00941  1.0000
  C   C8        1.0  0.90560  0.03312  0.99073  1.0000
  N   N2        1.0  0.87555  0.06526  0.99099  1.0000
  C   C9        1.0  0.83986  0.04658  0.96990  1.0000
  N   N3        1.0  0.84572  0.00465  0.95636  1.0000
  N   N4        1.0  0.88769  0.99661  0.96996  1.0000
  C   C10       1.0  0.90744  0.95345  0.96284  1.0000
  H   H1        1.0  0.19368  0.01285  0.94654  1.0000
  H   H2        1.0  0.16222  0.96727  0.92571  1.0000
  H   H3        1.0  0.20312  0.95841  0.96740  1.0000
  H   H4        1.0  0.15934  0.00214  0.02161  1.0000
  H   H5        1.0  0.12831  0.95657  0.00090  1.0000
  H   H6        1.0  0.08910  0.00804  0.94682  1.0000
  H   H7        1.0  0.12165  0.05283  0.96655  1.0000
  H   H8        1.0  0.05644  0.95323  0.02602  1.0000
  H   H9        1.0  0.01964  0.97517  0.98592  1.0000
  H   H10       1.0  0.89281  0.00631  0.07263  1.0000
  H   H11       1.0  0.93360  0.04005  0.10009  1.0000
  H   H12       1.0  0.93228  0.98141  0.10844  1.0000
  H   H13       1.0  0.97513  0.02938  0.98229  1.0000
  H   H14       1.0  0.95838  0.06858  0.02260  1.0000
  H   H15       1.0  0.80878  0.06403  0.96426  1.0000
  H   H16       1.0  0.88910  0.93595  0.93666  1.0000
  H   H17       1.0  0.94206  0.95776  0.95242  1.0000
  H   H18       1.0  0.90559  0.93473  0.99402  1.0000
