data_image0
_chemical_formula_structural       C2NC3NSO2C3ClC2ClC6SH20
_chemical_formula_sum              "C16 N2 S2 O2 Cl2 H20"
_cell_length_a       30
_cell_length_b       30
_cell_length_c       30
_cell_angle_alpha    90
_cell_angle_beta     90
_cell_angle_gamma    90

_space_group_name_H-M_alt    "P 1"
_space_group_IT_number       1

loop_
  _space_group_symop_operation_xyz
  'x, y, z'

loop_
  _atom_site_type_symbol
  _atom_site_label
  _atom_site_symmetry_multiplicity
  _atom_site_fract_x
  _atom_site_fract_y
  _atom_site_fract_z
  _atom_site_occupancy
  C   C1        1.0  0.00685  0.91332  0.00255  1.0000
  C   C2        1.0  0.97489  0.93914  0.03260  1.0000
  N   N1        1.0  0.99016  0.98467  0.04322  1.0000
  C   C3        1.0  0.96471  0.00331  0.08100  1.0000
  C   C4        1.0  0.97919  0.98349  0.12561  1.0000
  C   C5        1.0  0.99142  0.01423  0.00390  1.0000
  N   N2        1.0  0.02250  0.04999  0.01420  1.0000
  S   S1        1.0  0.06064  0.06399  0.97631  1.0000
  O   O1        1.0  0.03873  0.07062  0.93395  1.0000
  O   O2        1.0  0.08854  0.09787  0.99619  1.0000
  C   C6        1.0  0.09368  0.01501  0.97227  1.0000
  C   C7        1.0  0.12099  0.00322  0.00814  1.0000
  C   C8        1.0  0.14668  0.96469  0.00516  1.0000
  Cl  Cl1       1.0  0.18000  0.94940  0.04924  1.0000
  C   C9        1.0  0.14553  0.93829  0.96694  1.0000
  C   C10       1.0  0.11848  0.95081  0.93127  1.0000
  Cl  Cl2       1.0  0.11686  0.91823  0.88413  1.0000
  C   C11       1.0  0.09253  0.98923  0.93350  1.0000
  C   C12       1.0  0.94716  0.03420  0.98992  1.0000
  C   C13       1.0  0.92707  0.07355  0.00336  1.0000
  C   C14       1.0  0.88538  0.08120  0.98201  1.0000
  C   C15       1.0  0.87478  0.04790  0.95223  1.0000
  C   C16       1.0  0.83458  0.04396  0.92333  1.0000
  S   S2        1.0  0.91527  0.00791  0.95017  1.0000
  H   H1        1.0  0.00669  0.92564  0.96825  1.0000
  H   H2        1.0  0.04099  0.91475  0.01536  1.0000
  H   H3        1.0  0.99696  0.87819  0.00134  1.0000
  H   H4        1.0  0.94138  0.93913  0.01812  1.0000
  H   H5        1.0  0.97251  0.91952  0.06330  1.0000
  H   H6        1.0  0.92871  0.99869  0.07653  1.0000
  H   H7        1.0  0.97055  0.03927  0.08394  1.0000
  H   H8        1.0  0.97016  0.94832  0.12878  1.0000
  H   H9        1.0  0.01526  0.98664  0.13025  1.0000
  H   H10       1.0  0.96287  0.00137  0.15294  1.0000
  H   H11       1.0  0.00468  0.99576  0.97544  1.0000
  H   H12       1.0  0.03449  0.04846  0.04577  1.0000
  H   H13       1.0  0.12229  0.02384  0.03793  1.0000
  H   H14       1.0  0.16565  0.90823  0.96491  1.0000
  H   H15       1.0  0.07162  0.99879  0.90544  1.0000
  H   H16       1.0  0.94192  0.09607  0.02738  1.0000
  H   H17       1.0  0.86448  0.11005  0.98798  1.0000
  H   H18       1.0  0.81178  0.07192  0.92883  1.0000
  H   H19       1.0  0.84395  0.04397  0.88805  1.0000
  H   H20       1.0  0.81639  0.01315  0.93057  1.0000
