data_image0
_chemical_formula_structural       C2NCOC2SC5NC7H20
_chemical_formula_sum              "C17 N2 O1 S1 H20"
_cell_length_a       30
_cell_length_b       30
_cell_length_c       30
_cell_angle_alpha    90
_cell_angle_beta     90
_cell_angle_gamma    90

_space_group_name_H-M_alt    "P 1"
_space_group_IT_number       1

loop_
  _space_group_symop_operation_xyz
  'x, y, z'

loop_
  _atom_site_type_symbol
  _atom_site_label
  _atom_site_symmetry_multiplicity
  _atom_site_fract_x
  _atom_site_fract_y
  _atom_site_fract_z
  _atom_site_occupancy
  C   C1        1.0  0.99497  0.93822  0.03324  1.0000
  C   C2        1.0  0.97562  0.98178  0.05094  1.0000
  N   N1        1.0  0.95547  0.00901  0.01532  1.0000
  C   C3        1.0  0.98057  0.03729  0.98763  1.0000
  O   O1        1.0  0.96522  0.05593  0.95436  1.0000
  C   C4        1.0  0.02826  0.04662  0.00225  1.0000
  C   C5        1.0  0.05270  0.07517  0.96799  1.0000
  S   S1        1.0  0.11003  0.08661  0.98537  1.0000
  C   C6        1.0  0.13766  0.03645  0.96909  1.0000
  C   C7        1.0  0.18388  0.03463  0.97226  1.0000
  C   C8        1.0  0.20572  0.99561  0.95974  1.0000
  C   C9        1.0  0.18086  0.95967  0.94449  1.0000
  C   C10       1.0  0.13500  0.96429  0.94250  1.0000
  N   N2        1.0  0.11298  0.00168  0.95458  1.0000
  C   C11       1.0  0.91126  0.99645  0.00207  1.0000
  C   C12       1.0  0.90423  0.98070  0.95852  1.0000
  C   C13       1.0  0.86238  0.96569  0.94486  1.0000
  C   C14       1.0  0.82685  0.96630  0.97455  1.0000
  C   C15       1.0  0.83301  0.98266  0.01761  1.0000
  C   C16       1.0  0.87483  0.99858  0.03172  1.0000
  C   C17       1.0  0.87764  0.01857  0.07762  1.0000
  H   H1        1.0  0.96874  0.91698  0.01936  1.0000
  H   H2        1.0  0.01954  0.94396  0.00692  1.0000
  H   H3        1.0  0.01123  0.91981  0.06021  1.0000
  H   H4        1.0  0.95106  0.97393  0.07665  1.0000
  H   H5        1.0  0.00179  0.00092  0.06763  1.0000
  H   H6        1.0  0.02690  0.06423  0.03425  1.0000
  H   H7        1.0  0.04567  0.01500  0.00684  1.0000
  H   H8        1.0  0.05220  0.06013  0.93472  1.0000
  H   H9        1.0  0.03601  0.10753  0.96496  1.0000
  H   H10       1.0  0.20284  0.06304  0.98415  1.0000
  H   H11       1.0  0.24180  0.99343  0.96181  1.0000
  H   H12       1.0  0.19680  0.92886  0.93436  1.0000
  H   H13       1.0  0.11405  0.93719  0.93075  1.0000
  H   H14       1.0  0.93167  0.97933  0.93487  1.0000
  H   H15       1.0  0.85774  0.95350  0.91108  1.0000
  H   H16       1.0  0.79421  0.95461  0.96406  1.0000
  H   H17       1.0  0.80459  0.98377  0.04013  1.0000
  H   H18       1.0  0.90523  0.04226  0.08048  1.0000
  H   H19       1.0  0.84721  0.03729  0.08525  1.0000
  H   H20       1.0  0.88159  0.99233  0.10264  1.0000
