data_image0
_chemical_formula_structural       C2NC2ONC3NC2ClC5ClH21
_chemical_formula_sum              "C14 N3 O1 Cl2 H21"
_cell_length_a       30
_cell_length_b       30
_cell_length_c       30
_cell_angle_alpha    90
_cell_angle_beta     90
_cell_angle_gamma    90

_space_group_name_H-M_alt    "P 1"
_space_group_IT_number       1

loop_
  _space_group_symop_operation_xyz
  'x, y, z'

loop_
  _atom_site_type_symbol
  _atom_site_label
  _atom_site_symmetry_multiplicity
  _atom_site_fract_x
  _atom_site_fract_y
  _atom_site_fract_z
  _atom_site_occupancy
  C   C1        1.0  0.94704  0.92736  0.03260  1.0000
  C   C2        1.0  0.92592  0.95428  0.99486  1.0000
  N   N1        1.0  0.95776  0.97656  0.96446  1.0000
  C   C3        1.0  0.98894  0.94347  0.94378  1.0000
  C   C4        1.0  0.03241  0.93941  0.97069  1.0000
  O   O1        1.0  0.05676  0.90684  0.96648  1.0000
  N   N2        1.0  0.04039  0.97663  0.99668  1.0000
  C   C5        1.0  0.07641  0.98520  0.02533  1.0000
  C   C6        1.0  0.07595  0.02589  0.04849  1.0000
  C   C7        1.0  0.10975  0.03706  0.07870  1.0000
  N   N3        1.0  0.11066  0.07945  0.09834  1.0000
  C   C8        1.0  0.14605  0.00834  0.08311  1.0000
  C   C9        1.0  0.14663  0.96775  0.06034  1.0000
  Cl  Cl1       1.0  0.19101  0.93197  0.06759  1.0000
  C   C10       1.0  0.11190  0.95589  0.03176  1.0000
  C   C11       1.0  0.93451  0.00138  0.92825  1.0000
  C   C12       1.0  0.90563  0.04314  0.94016  1.0000
  C   C13       1.0  0.89862  0.07107  0.89772  1.0000
  C   C14       1.0  0.92758  0.07219  0.97601  1.0000
  Cl  Cl2       1.0  0.85084  0.02683  0.95883  1.0000
  H   H1        1.0  0.92102  0.91565  0.05539  1.0000
  H   H2        1.0  0.96466  0.89792  0.02033  1.0000
  H   H3        1.0  0.97014  0.94779  0.05203  1.0000
  H   H4        1.0  0.90322  0.93256  0.97618  1.0000
  H   H5        1.0  0.90574  0.97962  0.01149  1.0000
  H   H6        1.0  0.97341  0.91061  0.94012  1.0000
  H   H7        1.0  0.99965  0.95426  0.91052  1.0000
  H   H8        1.0  0.01475  0.99884  0.99607  1.0000
  H   H9        1.0  0.04892  0.04945  0.04301  1.0000
  H   H10       1.0  0.08009  0.09323  0.10285  1.0000
  H   H11       1.0  0.12967  0.08133  0.12628  1.0000
  H   H12       1.0  0.17397  0.01737  0.10437  1.0000
  H   H13       1.0  0.11339  0.92393  0.01485  1.0000
  H   H14       1.0  0.91481  0.97816  0.90785  1.0000
  H   H15       1.0  0.96097  0.01402  0.90624  1.0000
  H   H16       1.0  0.87763  0.10028  0.90417  1.0000
  H   H17       1.0  0.93050  0.08325  0.88461  1.0000
  H   H18       1.0  0.88264  0.05138  0.87147  1.0000
  H   H19       1.0  0.90821  0.10254  0.98225  1.0000
  H   H20       1.0  0.93078  0.05459  0.00786  1.0000
  H   H21       1.0  0.96108  0.08249  0.96573  1.0000
