data_image0
_chemical_formula_structural       C2NC4FCOC2OC3OC5NC3H27
_chemical_formula_sum              "C20 N2 F1 O3 H27"
_cell_length_a       30
_cell_length_b       30
_cell_length_c       30
_cell_angle_alpha    90
_cell_angle_beta     90
_cell_angle_gamma    90

_space_group_name_H-M_alt    "P 1"
_space_group_IT_number       1

loop_
  _space_group_symop_operation_xyz
  'x, y, z'

loop_
  _atom_site_type_symbol
  _atom_site_label
  _atom_site_symmetry_multiplicity
  _atom_site_fract_x
  _atom_site_fract_y
  _atom_site_fract_z
  _atom_site_occupancy
  C   C1        1.0  0.98738  0.89511  0.98636  1.0000
  C   C2        1.0  0.96833  0.94155  0.97924  1.0000
  N   N1        1.0  0.96876  0.96799  0.02035  1.0000
  C   C3        1.0  0.92959  0.96447  0.04923  1.0000
  C   C4        1.0  0.89047  0.99112  0.03195  1.0000
  C   C5        1.0  0.89156  0.03787  0.03233  1.0000
  C   C6        1.0  0.85543  0.06227  0.01632  1.0000
  F   F1        1.0  0.85739  0.10693  0.01738  1.0000
  C   C7        1.0  0.81765  0.04091  0.99984  1.0000
  O   O1        1.0  0.78301  0.06694  0.98519  1.0000
  C   C8        1.0  0.74284  0.04161  0.98065  1.0000
  C   C9        1.0  0.75196  0.99807  0.95646  1.0000
  O   O2        1.0  0.78139  0.97042  0.98197  1.0000
  C   C10       1.0  0.81666  0.99436  0.99860  1.0000
  C   C11       1.0  0.85253  0.96961  0.01500  1.0000
  C   C12       1.0  0.00286  0.99625  0.03382  1.0000
  O   O3        1.0  0.00032  0.01962  0.06744  1.0000
  C   C13       1.0  0.04400  0.99766  0.00591  1.0000
  C   C14       1.0  0.07242  0.03209  0.00959  1.0000
  C   C15       1.0  0.11584  0.03929  0.98483  1.0000
  C   C16       1.0  0.15497  0.04599  0.01757  1.0000
  C   C17       1.0  0.18626  0.00581  0.01849  1.0000
  N   N2        1.0  0.20530  0.99467  0.97476  1.0000
  C   C18       1.0  0.25025  0.01252  0.96917  1.0000
  C   C19       1.0  0.17677  0.00718  0.93697  1.0000
  C   C20       1.0  0.12738  0.00430  0.94906  1.0000
  H   H1        1.0  0.98719  0.87644  0.95503  1.0000
  H   H2        1.0  0.96767  0.87645  0.01076  1.0000
  H   H3        1.0  0.02170  0.89645  0.99865  1.0000
  H   H4        1.0  0.93403  0.93902  0.96702  1.0000
  H   H5        1.0  0.98708  0.95885  0.95318  1.0000
  H   H6        1.0  0.92085  0.92910  0.05221  1.0000
  H   H7        1.0  0.93724  0.97571  0.08316  1.0000
  H   H8        1.0  0.92040  0.05565  0.04522  1.0000
  H   H9        1.0  0.72889  0.03580  0.01395  1.0000
  H   H10       1.0  0.71909  0.06183  0.96173  1.0000
  H   H11       1.0  0.76705  0.00387  0.92366  1.0000
  H   H12       1.0  0.72089  0.97958  0.95158  1.0000
  H   H13       1.0  0.85080  0.93340  0.01406  1.0000
  H   H14       1.0  0.05075  0.97003  0.98396  1.0000
  H   H15       1.0  0.06376  0.05889  0.03266  1.0000
  H   H16       1.0  0.11149  0.07124  0.96736  1.0000
  H   H17       1.0  0.17406  0.07552  0.00736  1.0000
  H   H18       1.0  0.14313  0.05297  0.05145  1.0000
  H   H19       1.0  0.16753  0.97669  0.03032  1.0000
  H   H20       1.0  0.21249  0.01113  0.04342  1.0000
  H   H21       1.0  0.26430  0.00218  0.93708  1.0000
  H   H22       1.0  0.25082  0.04901  0.97079  1.0000
  H   H23       1.0  0.27256  0.99949  0.99497  1.0000
  H   H24       1.0  0.18401  0.04119  0.92551  1.0000
  H   H25       1.0  0.18373  0.98470  0.90901  1.0000
  H   H26       1.0  0.12022  0.97030  0.96048  1.0000
  H   H27       1.0  0.10692  0.00992  0.91929  1.0000
