data_image0
_chemical_formula_structural       C2NC4OCONC5OC12OH38
_chemical_formula_sum              "C24 N2 O4 H38"
_cell_length_a       30
_cell_length_b       30
_cell_length_c       30
_cell_angle_alpha    90
_cell_angle_beta     90
_cell_angle_gamma    90

_space_group_name_H-M_alt    "P 1"
_space_group_IT_number       1

loop_
  _space_group_symop_operation_xyz
  'x, y, z'

loop_
  _atom_site_type_symbol
  _atom_site_label
  _atom_site_symmetry_multiplicity
  _atom_site_fract_x
  _atom_site_fract_y
  _atom_site_fract_z
  _atom_site_occupancy
  C   C1        1.0  0.22246  0.03239  0.08556  1.0000
  C   C2        1.0  0.19668  0.99274  0.06693  1.0000
  N   N1        1.0  0.15764  0.00611  0.04088  1.0000
  C   C3        1.0  0.16399  0.01377  0.99301  1.0000
  C   C4        1.0  0.17388  0.97091  0.96682  1.0000
  C   C5        1.0  0.17327  0.97817  0.91622  1.0000
  C   C6        1.0  0.21307  0.00416  0.89826  1.0000
  O   O1        1.0  0.25303  0.97922  0.90318  1.0000
  C   C7        1.0  0.12008  0.01959  0.06473  1.0000
  O   O2        1.0  0.11998  0.02140  0.10581  1.0000
  N   N2        1.0  0.08316  0.03212  0.04032  1.0000
  C   C8        1.0  0.05240  0.06357  0.05985  1.0000
  C   C9        1.0  0.01322  0.06408  0.02815  1.0000
  C   C10       1.0  0.01038  0.01568  0.01162  1.0000
  C   C11       1.0  0.99853  0.01407  0.96177  1.0000
  C   C12       1.0  0.98171  0.98374  0.04051  1.0000
  O   O3        1.0  0.98437  0.99572  0.08671  1.0000
  C   C13       1.0  0.93273  0.98174  0.02820  1.0000
  C   C14       1.0  0.91686  0.94660  0.00184  1.0000
  C   C15       1.0  0.87205  0.94448  0.98915  1.0000
  C   C16       1.0  0.84129  0.97711  0.00263  1.0000
  C   C17       1.0  0.79196  0.97590  0.98769  1.0000
  C   C18       1.0  0.76083  0.99245  0.02536  1.0000
  C   C19       1.0  0.77639  0.92811  0.97600  1.0000
  C   C20       1.0  0.78819  0.00658  0.94600  1.0000
  C   C21       1.0  0.74173  0.01130  0.92590  1.0000
  C   C22       1.0  0.85771  0.01237  0.02886  1.0000
  C   C23       1.0  0.90250  0.01455  0.04165  1.0000
  C   C24       1.0  0.05867  0.00022  0.01665  1.0000
  O   O4        1.0  0.07269  0.96565  0.00010  1.0000
  H   H1        1.0  0.25234  0.02078  0.10292  1.0000
  H   H2        1.0  0.23271  0.05523  0.05894  1.0000
  H   H3        1.0  0.20227  0.05109  0.10952  1.0000
  H   H4        1.0  0.18554  0.97149  0.09465  1.0000
  H   H5        1.0  0.21871  0.97227  0.04634  1.0000
  H   H6        1.0  0.13492  0.03061  0.97882  1.0000
  H   H7        1.0  0.19164  0.03738  0.98973  1.0000
  H   H8        1.0  0.20593  0.95660  0.97694  1.0000
  H   H9        1.0  0.14877  0.94561  0.97495  1.0000
  H   H10       1.0  0.17270  0.94521  0.90040  1.0000
  H   H11       1.0  0.14231  0.99510  0.90660  1.0000
  H   H12       1.0  0.21745  0.03649  0.91424  1.0000
  H   H13       1.0  0.20845  0.01008  0.86258  1.0000
  H   H14       1.0  0.26166  0.97990  0.93439  1.0000
  H   H15       1.0  0.06851  0.09623  0.06243  1.0000
  H   H16       1.0  0.04292  0.05321  0.09363  1.0000
  H   H17       1.0  0.02074  0.08667  0.00031  1.0000
  H   H18       1.0  0.98275  0.07638  0.04389  1.0000
  H   H19       1.0  0.02309  0.03247  0.94196  1.0000
  H   H20       1.0  0.99829  0.97983  0.94907  1.0000
  H   H21       1.0  0.96597  0.02918  0.95515  1.0000
  H   H22       1.0  0.99526  0.94971  0.03861  1.0000
  H   H23       1.0  0.97027  0.97144  0.10307  1.0000
  H   H24       1.0  0.93936  0.92050  0.99035  1.0000
  H   H25       1.0  0.86206  0.91674  0.96807  1.0000
  H   H26       1.0  0.76480  0.02811  0.03192  1.0000
  H   H27       1.0  0.72563  0.98739  0.01692  1.0000
  H   H28       1.0  0.76700  0.97447  0.05657  1.0000
  H   H29       1.0  0.74029  0.92661  0.97055  1.0000
  H   H30       1.0  0.78407  0.90466  0.00301  1.0000
  H   H31       1.0  0.79223  0.91574  0.94547  1.0000
  H   H32       1.0  0.80004  0.04025  0.95426  1.0000
  H   H33       1.0  0.81064  0.99414  0.91989  1.0000
  H   H34       1.0  0.72795  0.97912  0.91577  1.0000
  H   H35       1.0  0.71865  0.02687  0.94946  1.0000
  H   H36       1.0  0.74324  0.03261  0.89630  1.0000
  H   H37       1.0  0.83590  0.03923  0.03972  1.0000
  H   H38       1.0  0.91353  0.04232  0.06218  1.0000
