data_image0
_chemical_formula_structural       C2NC10NCOC4BrC4H31
_chemical_formula_sum              "C21 N2 O1 Br1 H31"
_cell_length_a       30
_cell_length_b       30
_cell_length_c       30
_cell_angle_alpha    90
_cell_angle_beta     90
_cell_angle_gamma    90

_space_group_name_H-M_alt    "P 1"
_space_group_IT_number       1

loop_
  _space_group_symop_operation_xyz
  'x, y, z'

loop_
  _atom_site_type_symbol
  _atom_site_label
  _atom_site_symmetry_multiplicity
  _atom_site_fract_x
  _atom_site_fract_y
  _atom_site_fract_z
  _atom_site_occupancy
  C   C1        1.0  0.92010  0.00492  0.91433  1.0000
  C   C2        1.0  0.95806  0.02603  0.94085  1.0000
  N   N1        1.0  0.96750  0.00793  0.98521  1.0000
  C   C3        1.0  0.94504  0.03098  0.02207  1.0000
  C   C4        1.0  0.89436  0.02976  0.03008  1.0000
  C   C5        1.0  0.87034  0.98522  0.02543  1.0000
  C   C6        1.0  0.82152  0.99901  0.02617  1.0000
  C   C7        1.0  0.82041  0.04105  0.99768  1.0000
  C   C8        1.0  0.86619  0.06293  0.00322  1.0000
  C   C9        1.0  0.97544  0.95960  0.98893  1.0000
  C   C10       1.0  0.00663  0.93979  0.95261  1.0000
  C   C11       1.0  0.05476  0.95622  0.95222  1.0000
  C   C12       1.0  0.08081  0.94395  0.99398  1.0000
  N   N2        1.0  0.07042  0.97333  0.03129  1.0000
  C   C13       1.0  0.10145  0.00260  0.05030  1.0000
  O   O1        1.0  0.09797  0.01816  0.08804  1.0000
  C   C14       1.0  0.14085  0.01617  0.02404  1.0000
  C   C15       1.0  0.18340  0.00680  0.04063  1.0000
  C   C16       1.0  0.22094  0.01999  0.01650  1.0000
  C   C17       1.0  0.21564  0.04288  0.97633  1.0000
  Br  Br1       1.0  0.26650  0.06073  0.94368  1.0000
  C   C18       1.0  0.17320  0.05303  0.96016  1.0000
  C   C19       1.0  0.13561  0.03988  0.98424  1.0000
  C   C20       1.0  0.03088  0.96411  0.05783  1.0000
  C   C21       1.0  0.99074  0.94215  0.03511  1.0000
  H   H1        1.0  0.92508  0.96931  0.90852  1.0000
  H   H2        1.0  0.91777  0.02095  0.88160  1.0000
  H   H3        1.0  0.88788  0.00898  0.93056  1.0000
  H   H4        1.0  0.95221  0.06206  0.94306  1.0000
  H   H5        1.0  0.98841  0.02354  0.92064  1.0000
  H   H6        1.0  0.96012  0.02046  0.05347  1.0000
  H   H7        1.0  0.95476  0.06627  0.02015  1.0000
  H   H8        1.0  0.89014  0.03983  0.06516  1.0000
  H   H9        1.0  0.87754  0.96879  0.99377  1.0000
  H   H10       1.0  0.87840  0.96218  0.05252  1.0000
  H   H11       1.0  0.79951  0.97298  0.01325  1.0000
  H   H12       1.0  0.81111  0.00675  0.06035  1.0000
  H   H13       1.0  0.79328  0.06336  0.00750  1.0000
  H   H14       1.0  0.81519  0.03221  0.96262  1.0000
  H   H15       1.0  0.86317  0.09443  0.02150  1.0000
  H   H16       1.0  0.88039  0.07120  0.97075  1.0000
  H   H17       1.0  0.94338  0.94308  0.98302  1.0000
  H   H18       1.0  0.00685  0.90332  0.95606  1.0000
  H   H19       1.0  0.99269  0.94557  0.91938  1.0000
  H   H20       1.0  0.05574  0.99220  0.94636  1.0000
  H   H21       1.0  0.07136  0.94061  0.92360  1.0000
  H   H22       1.0  0.07455  0.90942  0.00418  1.0000
  H   H23       1.0  0.11644  0.94557  0.98640  1.0000
  H   H24       1.0  0.18716  0.98946  0.07224  1.0000
  H   H25       1.0  0.25398  0.01255  0.02937  1.0000
  H   H26       1.0  0.16909  0.07141  0.92921  1.0000
  H   H27       1.0  0.10250  0.04857  0.97239  1.0000
  H   H28       1.0  0.04169  0.94224  0.08513  1.0000
  H   H29       1.0  0.02069  0.99518  0.07399  1.0000
  H   H30       1.0  0.99763  0.90630  0.03213  1.0000
  H   H31       1.0  0.96257  0.94397  0.05841  1.0000
