data_image0
_chemical_formula_structural       C2NC4OC2OC4NCOC5NCH27
_chemical_formula_sum              "C19 N3 O3 H27"
_cell_length_a       30
_cell_length_b       30
_cell_length_c       30
_cell_angle_alpha    90
_cell_angle_beta     90
_cell_angle_gamma    90

_space_group_name_H-M_alt    "P 1"
_space_group_IT_number       1

loop_
  _space_group_symop_operation_xyz
  'x, y, z'

loop_
  _atom_site_type_symbol
  _atom_site_label
  _atom_site_symmetry_multiplicity
  _atom_site_fract_x
  _atom_site_fract_y
  _atom_site_fract_z
  _atom_site_occupancy
  C   C1        1.0  0.87711  0.08201  0.93484  1.0000
  C   C2        1.0  0.90957  0.09260  0.97247  1.0000
  N   N1        1.0  0.93368  0.05366  0.98953  1.0000
  C   C3        1.0  0.92416  0.03949  0.03543  1.0000
  C   C4        1.0  0.88488  0.00742  0.04152  1.0000
  C   C5        1.0  0.88118  0.96845  0.00967  1.0000
  C   C6        1.0  0.83364  0.95302  0.01745  1.0000
  O   O1        1.0  0.80859  0.99116  0.03190  1.0000
  C   C7        1.0  0.83881  0.02793  0.03748  1.0000
  C   C8        1.0  0.96447  0.03375  0.96091  1.0000
  O   O2        1.0  0.96842  0.04615  0.92187  1.0000
  C   C9        1.0  0.99487  0.99725  0.97921  1.0000
  C   C10       1.0  0.01002  0.96575  0.94213  1.0000
  C   C11       1.0  0.03787  0.92838  0.96216  1.0000
  C   C12       1.0  0.07421  0.94491  0.99399  1.0000
  N   N2        1.0  0.07683  0.99346  0.99816  1.0000
  C   C13       1.0  0.11635  0.01636  0.00873  1.0000
  O   O3        1.0  0.11758  0.05717  0.01359  1.0000
  C   C14       1.0  0.15906  0.99117  0.01337  1.0000
  C   C15       1.0  0.19677  0.00696  0.99149  1.0000
  C   C16       1.0  0.23649  0.98359  0.99689  1.0000
  C   C17       1.0  0.23733  0.94623  0.02442  1.0000
  C   C18       1.0  0.19834  0.93377  0.04579  1.0000
  N   N3        1.0  0.15909  0.95523  0.04097  1.0000
  C   C19       1.0  0.03536  0.01897  0.00162  1.0000
  H   H1        1.0  0.88958  0.09518  0.90325  1.0000
  H   H2        1.0  0.84514  0.09842  0.94106  1.0000
  H   H3        1.0  0.87094  0.04634  0.93087  1.0000
  H   H4        1.0  0.93439  0.11670  0.96056  1.0000
  H   H5        1.0  0.89180  0.10865  0.00006  1.0000
  H   H6        1.0  0.91915  0.06950  0.05576  1.0000
  H   H7        1.0  0.95385  0.02363  0.04931  1.0000
  H   H8        1.0  0.88748  0.99376  0.07549  1.0000
  H   H9        1.0  0.90543  0.94198  0.01598  1.0000
  H   H10       1.0  0.88481  0.97904  0.97496  1.0000
  H   H11       1.0  0.81841  0.93911  0.98742  1.0000
  H   H12       1.0  0.83207  0.92804  0.04404  1.0000
  H   H13       1.0  0.82933  0.04714  0.06711  1.0000
  H   H14       1.0  0.83515  0.04938  0.00823  1.0000
  H   H15       1.0  0.97675  0.97694  0.00350  1.0000
  H   H16       1.0  0.98108  0.95167  0.92483  1.0000
  H   H17       1.0  0.02959  0.98365  0.91692  1.0000
  H   H18       1.0  0.05286  0.90845  0.93534  1.0000
  H   H19       1.0  0.01600  0.90544  0.98057  1.0000
  H   H20       1.0  0.06851  0.93142  0.02747  1.0000
  H   H21       1.0  0.10611  0.93174  0.98218  1.0000
  H   H22       1.0  0.19502  0.03663  0.97085  1.0000
  H   H23       1.0  0.26638  0.99397  0.97944  1.0000
  H   H24       1.0  0.26769  0.92727  0.02926  1.0000
  H   H25       1.0  0.19773  0.90505  0.06792  1.0000
  H   H26       1.0  0.02883  0.02348  0.03738  1.0000
  H   H27       1.0  0.04123  0.05255  0.98818  1.0000
