data_image0
_chemical_formula_structural       C2NC3NC4NSCO2C2SH17
_chemical_formula_sum              "C12 N3 S2 O2 H17"
_cell_length_a       30
_cell_length_b       30
_cell_length_c       30
_cell_angle_alpha    90
_cell_angle_beta     90
_cell_angle_gamma    90

_space_group_name_H-M_alt    "P 1"
_space_group_IT_number       1

loop_
  _space_group_symop_operation_xyz
  'x, y, z'

loop_
  _atom_site_type_symbol
  _atom_site_label
  _atom_site_symmetry_multiplicity
  _atom_site_fract_x
  _atom_site_fract_y
  _atom_site_fract_z
  _atom_site_occupancy
  C   C1        1.0  0.86015  0.95278  0.94452  1.0000
  C   C2        1.0  0.87242  0.99930  0.96061  1.0000
  N   N1        1.0  0.89712  0.99718  0.00240  1.0000
  C   C3        1.0  0.87169  0.00021  0.04389  1.0000
  C   C4        1.0  0.86901  0.04824  0.05999  1.0000
  C   C5        1.0  0.94254  0.99374  0.00475  1.0000
  N   N2        1.0  0.96437  0.99304  0.04283  1.0000
  C   C6        1.0  0.00980  0.98960  0.03633  1.0000
  C   C7        1.0  0.04246  0.98836  0.07008  1.0000
  C   C8        1.0  0.08752  0.98459  0.05862  1.0000
  C   C9        1.0  0.10009  0.98168  0.01405  1.0000
  N   N3        1.0  0.14627  0.97916  0.00294  1.0000
  S   S1        1.0  0.17230  0.02778  0.99049  1.0000
  C   C10       1.0  0.17786  0.02285  0.93167  1.0000
  O   O1        1.0  0.21639  0.02385  0.00970  1.0000
  O   O2        1.0  0.14369  0.06522  0.00045  1.0000
  C   C11       1.0  0.06844  0.98348  0.97994  1.0000
  C   C12       1.0  0.02333  0.98725  0.99203  1.0000
  S   S2        1.0  0.97705  0.98978  0.95856  1.0000
  H   H1        1.0  0.84096  0.95480  0.91356  1.0000
  H   H2        1.0  0.83985  0.93526  0.96928  1.0000
  H   H3        1.0  0.88980  0.93251  0.93815  1.0000
  H   H4        1.0  0.84164  0.01847  0.96538  1.0000
  H   H5        1.0  0.89088  0.01723  0.93469  1.0000
  H   H6        1.0  0.88615  0.97903  0.06995  1.0000
  H   H7        1.0  0.83778  0.98757  0.03866  1.0000
  H   H8        1.0  0.90215  0.06177  0.06713  1.0000
  H   H9        1.0  0.84917  0.05022  0.09054  1.0000
  H   H10       1.0  0.85341  0.06966  0.03490  1.0000
  H   H11       1.0  0.03231  0.99065  0.10474  1.0000
  H   H12       1.0  0.11236  0.98440  0.08498  1.0000
  H   H13       1.0  0.16551  0.96218  0.02538  1.0000
  H   H14       1.0  0.19677  0.05160  0.91979  1.0000
  H   H15       1.0  0.19593  0.99221  0.92401  1.0000
  H   H16       1.0  0.14482  0.02276  0.91649  1.0000
  H   H17       1.0  0.07802  0.98161  0.94516  1.0000
