data_image0
_chemical_formula_structural       C2NCOC5NC3NC7H23
_chemical_formula_sum              "C18 N3 O1 H23"
_cell_length_a       30
_cell_length_b       30
_cell_length_c       30
_cell_angle_alpha    90
_cell_angle_beta     90
_cell_angle_gamma    90

_space_group_name_H-M_alt    "P 1"
_space_group_IT_number       1

loop_
  _space_group_symop_operation_xyz
  'x, y, z'

loop_
  _atom_site_type_symbol
  _atom_site_label
  _atom_site_symmetry_multiplicity
  _atom_site_fract_x
  _atom_site_fract_y
  _atom_site_fract_z
  _atom_site_occupancy
  C   C1        1.0  0.90903  0.09327  0.05559  1.0000
  C   C2        1.0  0.90737  0.07037  0.01037  1.0000
  N   N1        1.0  0.94628  0.04171  0.00307  1.0000
  C   C3        1.0  0.98439  0.06261  0.98599  1.0000
  O   O1        1.0  0.98719  0.10279  0.97863  1.0000
  C   C4        1.0  0.02409  0.03553  0.97656  1.0000
  C   C5        1.0  0.05158  0.02246  0.01169  1.0000
  C   C6        1.0  0.08940  0.99671  0.00277  1.0000
  C   C7        1.0  0.11808  0.98229  0.03700  1.0000
  C   C8        1.0  0.15619  0.95741  0.02741  1.0000
  N   N2        1.0  0.18220  0.93985  0.06185  1.0000
  C   C9        1.0  0.16342  0.94427  0.98347  1.0000
  C   C10       1.0  0.13502  0.95869  0.94937  1.0000
  C   C11       1.0  0.09811  0.98508  0.95807  1.0000
  N   N3        1.0  0.07185  0.99825  0.92414  1.0000
  C   C12       1.0  0.03546  0.02372  0.93321  1.0000
  C   C13       1.0  0.00827  0.03841  0.89390  1.0000
  C   C14       1.0  0.94091  0.99304  0.00636  1.0000
  C   C15       1.0  0.91572  0.97603  0.04741  1.0000
  C   C16       1.0  0.90074  0.92981  0.03296  1.0000
  C   C17       1.0  0.88530  0.93710  0.98520  1.0000
  C   C18       1.0  0.91630  0.97281  0.96616  1.0000
  H   H1        1.0  0.91025  0.06896  0.08276  1.0000
  H   H2        1.0  0.93853  0.11455  0.05853  1.0000
  H   H3        1.0  0.87949  0.11415  0.06027  1.0000
  H   H4        1.0  0.87672  0.05086  0.00696  1.0000
  H   H5        1.0  0.90624  0.09584  0.98418  1.0000
  H   H6        1.0  0.04335  0.03241  0.04555  1.0000
  H   H7        1.0  0.11054  0.99067  0.07145  1.0000
  H   H8        1.0  0.18204  0.95840  0.09016  1.0000
  H   H9        1.0  0.21357  0.93131  0.05241  1.0000
  H   H10       1.0  0.19133  0.92275  0.97509  1.0000
  H   H11       1.0  0.14174  0.94872  0.91518  1.0000
  H   H12       1.0  0.97373  0.02722  0.89720  1.0000
  H   H13       1.0  0.02162  0.02427  0.86300  1.0000
  H   H14       1.0  0.00902  0.07474  0.89078  1.0000
  H   H15       1.0  0.97388  0.97745  0.00736  1.0000
  H   H16       1.0  0.88641  0.99620  0.05544  1.0000
  H   H17       1.0  0.93699  0.97509  0.07704  1.0000
  H   H18       1.0  0.92888  0.90651  0.03376  1.0000
  H   H19       1.0  0.87426  0.91650  0.05419  1.0000
  H   H20       1.0  0.88608  0.90633  0.96564  1.0000
  H   H21       1.0  0.85091  0.94948  0.98506  1.0000
  H   H22       1.0  0.94034  0.95794  0.94301  1.0000
  H   H23       1.0  0.89716  0.99747  0.94722  1.0000
