data_image0
_chemical_formula_structural       C2NC4OCOC3ONC4H24
_chemical_formula_sum              "C14 N2 O3 H24"
_cell_length_a       30
_cell_length_b       30
_cell_length_c       30
_cell_angle_alpha    90
_cell_angle_beta     90
_cell_angle_gamma    90

_space_group_name_H-M_alt    "P 1"
_space_group_IT_number       1

loop_
  _space_group_symop_operation_xyz
  'x, y, z'

loop_
  _atom_site_type_symbol
  _atom_site_label
  _atom_site_symmetry_multiplicity
  _atom_site_fract_x
  _atom_site_fract_y
  _atom_site_fract_z
  _atom_site_occupancy
  C   C1        1.0  0.09643  0.89414  0.02755  1.0000
  C   C2        1.0  0.08186  0.92402  0.98920  1.0000
  N   N1        1.0  0.03728  0.94298  0.99666  1.0000
  C   C3        1.0  0.03621  0.98609  0.01977  1.0000
  C   C4        1.0  0.04956  0.02511  0.98968  1.0000
  C   C5        1.0  0.04768  0.06933  0.01515  1.0000
  C   C6        1.0  0.05846  0.10903  0.98537  1.0000
  O   O1        1.0  0.10272  0.10588  0.96886  1.0000
  C   C7        1.0  0.00130  0.91636  0.98493  1.0000
  O   O2        1.0  0.00749  0.87964  0.96708  1.0000
  C   C8        1.0  0.95298  0.92977  0.99295  1.0000
  C   C9        1.0  0.93953  0.93573  0.04153  1.0000
  C   C10       1.0  0.91826  0.98117  0.04343  1.0000
  O   O3        1.0  0.90151  0.99729  0.07685  1.0000
  N   N2        1.0  0.92121  0.00085  0.00160  1.0000
  C   C11       1.0  0.89758  0.04039  0.98956  1.0000
  C   C12       1.0  0.91944  0.07678  0.96279  1.0000
  C   C13       1.0  0.90819  0.08455  0.01084  1.0000
  C   C14       1.0  0.93822  0.97109  0.96804  1.0000
  H   H1        1.0  0.12961  0.88047  0.02100  1.0000
  H   H2        1.0  0.09778  0.91273  0.05892  1.0000
  H   H3        1.0  0.07336  0.86626  0.03216  1.0000
  H   H4        1.0  0.10604  0.95095  0.98468  1.0000
  H   H5        1.0  0.08188  0.90470  0.95819  1.0000
  H   H6        1.0  0.00336  0.99252  0.03342  1.0000
  H   H7        1.0  0.05887  0.98392  0.04836  1.0000
  H   H8        1.0  0.02746  0.02662  0.96067  1.0000
  H   H9        1.0  0.08328  0.02007  0.97663  1.0000
  H   H10       1.0  0.07161  0.06803  0.04275  1.0000
  H   H11       1.0  0.01447  0.07392  0.02956  1.0000
  H   H12       1.0  0.03574  0.11047  0.95686  1.0000
  H   H13       1.0  0.05525  0.14029  0.00392  1.0000
  H   H14       1.0  0.12280  0.10875  0.99414  1.0000
  H   H15       1.0  0.93333  0.90171  0.97979  1.0000
  H   H16       1.0  0.91450  0.91094  0.05111  1.0000
  H   H17       1.0  0.96750  0.93379  0.06479  1.0000
  H   H18       1.0  0.86249  0.03400  0.98296  1.0000
  H   H19       1.0  0.89946  0.09359  0.93782  1.0000
  H   H20       1.0  0.95428  0.07345  0.95400  1.0000
  H   H21       1.0  0.88044  0.10632  0.01869  1.0000
  H   H22       1.0  0.93493  0.08572  0.03505  1.0000
  H   H23       1.0  0.91093  0.96319  0.94505  1.0000
  H   H24       1.0  0.96469  0.98737  0.94909  1.0000
