data_image0
_chemical_formula_structural       C2NC3OC3NCOC12H36
_chemical_formula_sum              "C21 N2 O2 H36"
_cell_length_a       30
_cell_length_b       30
_cell_length_c       30
_cell_angle_alpha    90
_cell_angle_beta     90
_cell_angle_gamma    90

_space_group_name_H-M_alt    "P 1"
_space_group_IT_number       1

loop_
  _space_group_symop_operation_xyz
  'x, y, z'

loop_
  _atom_site_type_symbol
  _atom_site_label
  _atom_site_symmetry_multiplicity
  _atom_site_fract_x
  _atom_site_fract_y
  _atom_site_fract_z
  _atom_site_occupancy
  C   C1        1.0  0.24330  0.99464  0.05750  1.0000
  C   C2        1.0  0.22422  0.96499  0.02100  1.0000
  N   N1        1.0  0.18310  0.98246  0.00118  1.0000
  C   C3        1.0  0.18738  0.00908  0.96038  1.0000
  C   C4        1.0  0.19641  0.05814  0.96941  1.0000
  C   C5        1.0  0.14378  0.97700  0.02544  1.0000
  O   O1        1.0  0.14363  0.95792  0.06185  1.0000
  C   C6        1.0  0.10011  0.99379  0.00490  1.0000
  C   C7        1.0  0.08463  0.96201  0.96767  1.0000
  C   C8        1.0  0.04359  0.93500  0.98071  1.0000
  N   N2        1.0  0.00658  0.96410  0.99332  1.0000
  C   C9        1.0  0.96341  0.94988  0.98379  1.0000
  O   O2        1.0  0.95642  0.91311  0.96675  1.0000
  C   C10       1.0  0.92462  0.98205  0.99300  1.0000
  C   C11       1.0  0.92335  0.01884  0.95743  1.0000
  C   C12       1.0  0.88209  0.04908  0.96029  1.0000
  C   C13       1.0  0.85119  0.03713  0.99911  1.0000
  C   C14       1.0  0.80918  0.06631  0.99930  1.0000
  C   C15       1.0  0.77826  0.05372  0.03780  1.0000
  C   C16       1.0  0.76657  0.00417  0.03736  1.0000
  C   C17       1.0  0.80816  0.97481  0.03603  1.0000
  C   C18       1.0  0.83874  0.98742  0.99691  1.0000
  C   C19       1.0  0.87993  0.95679  0.99434  1.0000
  C   C20       1.0  0.01766  0.00310  0.02045  1.0000
  C   C21       1.0  0.06407  0.99987  0.04092  1.0000
  H   H1        1.0  0.21913  0.00027  0.08422  1.0000
  H   H2        1.0  0.27287  0.97908  0.07216  1.0000
  H   H3        1.0  0.25320  0.02720  0.04452  1.0000
  H   H4        1.0  0.24897  0.95981  0.99467  1.0000
  H   H5        1.0  0.21698  0.93210  0.03518  1.0000
  H   H6        1.0  0.21411  0.99492  0.93992  1.0000
  H   H7        1.0  0.15695  0.00626  0.94062  1.0000
  H   H8        1.0  0.19565  0.07694  0.93819  1.0000
  H   H9        1.0  0.17164  0.07246  0.99196  1.0000
  H   H10       1.0  0.22926  0.06302  0.98432  1.0000
  H   H11       1.0  0.10624  0.02680  0.99050  1.0000
  H   H12       1.0  0.11117  0.93904  0.95753  1.0000
  H   H13       1.0  0.07626  0.98201  0.93817  1.0000
  H   H14       1.0  0.03399  0.91363  0.95271  1.0000
  H   H15       1.0  0.05081  0.91312  0.00909  1.0000
  H   H16       1.0  0.92925  0.99690  0.02600  1.0000
  H   H17       1.0  0.92478  0.00370  0.92394  1.0000
  H   H18       1.0  0.95339  0.03979  0.95965  1.0000
  H   H19       1.0  0.89279  0.08408  0.96327  1.0000
  H   H20       1.0  0.86363  0.04684  0.92859  1.0000
  H   H21       1.0  0.86904  0.04368  0.03045  1.0000
  H   H22       1.0  0.79115  0.06267  0.96767  1.0000
  H   H23       1.0  0.81848  0.10157  0.00225  1.0000
  H   H24       1.0  0.79444  0.06199  0.06961  1.0000
  H   H25       1.0  0.74769  0.07367  0.03592  1.0000
  H   H26       1.0  0.74572  0.99681  0.00818  1.0000
  H   H27       1.0  0.74679  0.99591  0.06695  1.0000
  H   H28       1.0  0.82639  0.97814  0.06762  1.0000
  H   H29       1.0  0.79790  0.93981  0.03320  1.0000
  H   H30       1.0  0.81951  0.98196  0.96610  1.0000
  H   H31       1.0  0.87654  0.93611  0.96424  1.0000
  H   H32       1.0  0.88041  0.93306  0.02227  1.0000
  H   H33       1.0  0.99320  0.00690  0.04720  1.0000
  H   H34       1.0  0.01572  0.03249  0.99888  1.0000
  H   H35       1.0  0.07130  0.02988  0.06050  1.0000
  H   H36       1.0  0.06430  0.97200  0.06463  1.0000
