data_image0
_chemical_formula_structural       C2NC2OC5OH19
_chemical_formula_sum              "C9 N1 O2 H19"
_cell_length_a       30
_cell_length_b       30
_cell_length_c       30
_cell_angle_alpha    90
_cell_angle_beta     90
_cell_angle_gamma    90

_space_group_name_H-M_alt    "P 1"
_space_group_IT_number       1

loop_
  _space_group_symop_operation_xyz
  'x, y, z'

loop_
  _atom_site_type_symbol
  _atom_site_label
  _atom_site_symmetry_multiplicity
  _atom_site_fract_x
  _atom_site_fract_y
  _atom_site_fract_z
  _atom_site_occupancy
  C   C1        1.0  0.89285  0.94353  0.98783  1.0000
  C   C2        1.0  0.93565  0.95208  0.01386  1.0000
  N   N1        1.0  0.95989  0.99166  0.99775  1.0000
  C   C3        1.0  0.93729  0.03291  0.01193  1.0000
  C   C4        1.0  0.96142  0.07514  0.99741  1.0000
  O   O1        1.0  0.00235  0.99070  0.02215  1.0000
  C   C5        1.0  0.04012  0.98513  0.99246  1.0000
  C   C6        1.0  0.03844  0.94072  0.96764  1.0000
  C   C7        1.0  0.08177  0.98769  0.02183  1.0000
  C   C8        1.0  0.09034  0.03724  0.02329  1.0000
  C   C9        1.0  0.07862  0.05095  0.97625  1.0000
  O   O2        1.0  0.04480  0.02102  0.96082  1.0000
  H   H1        1.0  0.89942  0.94178  0.95197  1.0000
  H   H2        1.0  0.87828  0.91167  0.99806  1.0000
  H   H3        1.0  0.86783  0.96938  0.99376  1.0000
  H   H4        1.0  0.95673  0.92253  0.00977  1.0000
  H   H5        1.0  0.92820  0.95463  0.04958  1.0000
  H   H6        1.0  0.93296  0.03365  0.04825  1.0000
  H   H7        1.0  0.90397  0.03419  0.99706  1.0000
  H   H8        1.0  0.96778  0.07510  0.96149  1.0000
  H   H9        1.0  0.99304  0.07915  0.01506  1.0000
  H   H10       1.0  0.94094  0.10438  0.00504  1.0000
  H   H11       1.0  0.03520  0.91269  0.99077  1.0000
  H   H12       1.0  0.01013  0.93954  0.94462  1.0000
  H   H13       1.0  0.06835  0.93592  0.94724  1.0000
  H   H14       1.0  0.07710  0.97346  0.05508  1.0000
  H   H15       1.0  0.11029  0.97124  0.00593  1.0000
  H   H16       1.0  0.12451  0.04592  0.03252  1.0000
  H   H17       1.0  0.06770  0.05318  0.04713  1.0000
  H   H18       1.0  0.10739  0.04750  0.95403  1.0000
  H   H19       1.0  0.06664  0.08532  0.97421  1.0000
