data_image0
_chemical_formula_structural       C2NC3OCOC5ClCH16
_chemical_formula_sum              "C12 N1 O2 Cl1 H16"
_cell_length_a       30
_cell_length_b       30
_cell_length_c       30
_cell_angle_alpha    90
_cell_angle_beta     90
_cell_angle_gamma    90

_space_group_name_H-M_alt    "P 1"
_space_group_IT_number       1

loop_
  _space_group_symop_operation_xyz
  'x, y, z'

loop_
  _atom_site_type_symbol
  _atom_site_label
  _atom_site_symmetry_multiplicity
  _atom_site_fract_x
  _atom_site_fract_y
  _atom_site_fract_z
  _atom_site_occupancy
  C   C1        1.0  0.05109  0.94288  0.96982  1.0000
  C   C2        1.0  0.05551  0.99341  0.96931  1.0000
  N   N1        1.0  0.06792  0.01135  0.01301  1.0000
  C   C3        1.0  0.11506  0.00928  0.02535  1.0000
  C   C4        1.0  0.14015  0.05094  0.01099  1.0000
  C   C5        1.0  0.03843  0.03147  0.04278  1.0000
  O   O1        1.0  0.05138  0.04795  0.07823  1.0000
  C   C6        1.0  0.98910  0.03497  0.03003  1.0000
  O   O2        1.0  0.96994  0.99233  0.02268  1.0000
  C   C7        1.0  0.92646  0.99106  0.00910  1.0000
  C   C8        1.0  0.89803  0.02768  0.00486  1.0000
  C   C9        1.0  0.85408  0.02169  0.99049  1.0000
  C   C10       1.0  0.83839  0.97913  0.98037  1.0000
  C   C11       1.0  0.86674  0.94264  0.98475  1.0000
  Cl  Cl1       1.0  0.84754  0.89004  0.97231  1.0000
  C   C12       1.0  0.91054  0.94845  0.99909  1.0000
  H   H1        1.0  0.04013  0.93086  0.93717  1.0000
  H   H2        1.0  0.08297  0.92689  0.97753  1.0000
  H   H3        1.0  0.02698  0.93178  0.99481  1.0000
  H   H4        1.0  0.08106  0.00342  0.94519  1.0000
  H   H5        1.0  0.02426  0.00817  0.95785  1.0000
  H   H6        1.0  0.13016  0.97967  0.01027  1.0000
  H   H7        1.0  0.11796  0.00543  0.06156  1.0000
  H   H8        1.0  0.17522  0.04859  0.02074  1.0000
  H   H9        1.0  0.12600  0.08083  0.02641  1.0000
  H   H10       1.0  0.13867  0.05536  0.97480  1.0000
  H   H11       1.0  0.97200  0.05136  0.05791  1.0000
  H   H12       1.0  0.98667  0.05623  0.00039  1.0000
  H   H13       1.0  0.90883  0.06132  0.01266  1.0000
  H   H14       1.0  0.83203  0.05029  0.98731  1.0000
  H   H15       1.0  0.80421  0.97465  0.96925  1.0000
  H   H16       1.0  0.93250  0.91986  0.00257  1.0000
