data_image0
_chemical_formula_structural       C2NCOCNC2OCNCNC7OC3H24
_chemical_formula_sum              "C18 N4 O3 H24"
_cell_length_a       30
_cell_length_b       30
_cell_length_c       30
_cell_angle_alpha    90
_cell_angle_beta     90
_cell_angle_gamma    90

_space_group_name_H-M_alt    "P 1"
_space_group_IT_number       1

loop_
  _space_group_symop_operation_xyz
  'x, y, z'

loop_
  _atom_site_type_symbol
  _atom_site_label
  _atom_site_symmetry_multiplicity
  _atom_site_fract_x
  _atom_site_fract_y
  _atom_site_fract_z
  _atom_site_occupancy
  C   C1        1.0  0.16742  0.98977  0.93409  1.0000
  C   C2        1.0  0.14608  0.03276  0.95048  1.0000
  N   N1        1.0  0.14266  0.03381  0.99944  1.0000
  C   C3        1.0  0.10563  0.01636  0.02233  1.0000
  O   O1        1.0  0.10476  0.01006  0.06303  1.0000
  C   C4        1.0  0.06467  0.00347  0.99392  1.0000
  N   N2        1.0  0.02608  0.99421  0.02311  1.0000
  C   C5        1.0  0.99426  0.96281  0.00322  1.0000
  C   C6        1.0  0.97027  0.98030  0.96106  1.0000
  O   O2        1.0  0.00086  0.98123  0.92417  1.0000
  C   C7        1.0  0.93087  0.94986  0.94815  1.0000
  N   N3        1.0  0.89092  0.95774  0.97463  1.0000
  C   C8        1.0  0.87886  0.92852  0.00776  1.0000
  N   N4        1.0  0.84423  0.93260  0.03289  1.0000
  C   C9        1.0  0.81671  0.96976  0.02601  1.0000
  C   C10       1.0  0.77905  0.97514  0.05284  1.0000
  C   C11       1.0  0.75080  0.01175  0.04703  1.0000
  C   C12       1.0  0.76001  0.04338  0.01422  1.0000
  C   C13       1.0  0.79749  0.03844  0.98719  1.0000
  C   C14       1.0  0.82554  0.00166  0.99330  1.0000
  C   C15       1.0  0.86550  0.99533  0.96538  1.0000
  O   O3        1.0  0.87484  0.02231  0.93603  1.0000
  C   C16       1.0  0.18328  0.04790  0.02219  1.0000
  C   C17       1.0  0.18475  0.06688  0.06854  1.0000
  C   C18       1.0  0.20428  0.02159  0.05934  1.0000
  H   H1        1.0  0.20123  0.98603  0.94732  1.0000
  H   H2        1.0  0.16943  0.98972  0.89767  1.0000
  H   H3        1.0  0.14817  0.96059  0.94451  1.0000
  H   H4        1.0  0.11336  0.03667  0.93506  1.0000
  H   H5        1.0  0.16582  0.06149  0.93948  1.0000
  H   H6        1.0  0.07399  0.97399  0.97456  1.0000
  H   H7        1.0  0.05572  0.03132  0.97222  1.0000
  H   H8        1.0  0.03847  0.98148  0.05233  1.0000
  H   H9        1.0  0.96935  0.95578  0.02896  1.0000
  H   H10       1.0  0.01131  0.93131  0.99587  1.0000
  H   H11       1.0  0.95896  0.01456  0.96685  1.0000
  H   H12       1.0  0.98750  0.00084  0.90194  1.0000
  H   H13       1.0  0.94078  0.91475  0.95059  1.0000
  H   H14       1.0  0.92227  0.95549  0.91303  1.0000
  H   H15       1.0  0.90142  0.89987  0.01208  1.0000
  H   H16       1.0  0.77178  0.95058  0.07847  1.0000
  H   H17       1.0  0.72162  0.01552  0.06820  1.0000
  H   H18       1.0  0.73804  0.07186  0.00975  1.0000
  H   H19       1.0  0.80481  0.06305  0.96160  1.0000
  H   H20       1.0  0.20693  0.06348  0.99939  1.0000
  H   H21       1.0  0.20758  0.09414  0.07492  1.0000
  H   H22       1.0  0.15443  0.06872  0.08804  1.0000
  H   H23       1.0  0.18693  0.99281  0.07255  1.0000
  H   H24       1.0  0.24025  0.01833  0.05953  1.0000
