data_image0
_chemical_formula_structural       C2NC4NCOC7OCOC9H30
_chemical_formula_sum              "C24 N2 O3 H30"
_cell_length_a       30
_cell_length_b       30
_cell_length_c       30
_cell_angle_alpha    90
_cell_angle_beta     90
_cell_angle_gamma    90

_space_group_name_H-M_alt    "P 1"
_space_group_IT_number       1

loop_
  _space_group_symop_operation_xyz
  'x, y, z'

loop_
  _atom_site_type_symbol
  _atom_site_label
  _atom_site_symmetry_multiplicity
  _atom_site_fract_x
  _atom_site_fract_y
  _atom_site_fract_z
  _atom_site_occupancy
  C   C1        1.0  0.07495  0.89157  0.96322  1.0000
  C   C2        1.0  0.06157  0.92047  0.00266  1.0000
  N   N1        1.0  0.02827  0.95421  0.99060  1.0000
  C   C3        1.0  0.98167  0.93982  0.98727  1.0000
  C   C4        1.0  0.95793  0.94213  0.03242  1.0000
  C   C5        1.0  0.90834  0.92875  0.03217  1.0000
  C   C6        1.0  0.90021  0.88165  0.01441  1.0000
  N   N2        1.0  0.87992  0.96255  0.01135  1.0000
  C   C7        1.0  0.86089  0.99660  0.03540  1.0000
  O   O1        1.0  0.86527  0.00368  0.07524  1.0000
  C   C8        1.0  0.83023  0.02158  0.00434  1.0000
  C   C9        1.0  0.82173  0.07006  0.01680  1.0000
  C   C10       1.0  0.85221  0.10298  0.99510  1.0000
  C   C11       1.0  0.88164  0.09240  0.96333  1.0000
  C   C12       1.0  0.88776  0.04636  0.94530  1.0000
  C   C13       1.0  0.85157  0.01296  0.95900  1.0000
  C   C14       1.0  0.87349  0.96830  0.96650  1.0000
  O   O2        1.0  0.88521  0.94338  0.93648  1.0000
  C   C15       1.0  0.03669  0.99996  0.98813  1.0000
  O   O3        1.0  0.00732  0.02827  0.98432  1.0000
  C   C16       1.0  0.08317  0.01581  0.99055  1.0000
  C   C17       1.0  0.11249  0.00787  0.95481  1.0000
  C   C18       1.0  0.15651  0.02284  0.95692  1.0000
  C   C19       1.0  0.16988  0.04625  0.99445  1.0000
  C   C20       1.0  0.21515  0.06467  0.00460  1.0000
  C   C21       1.0  0.20421  0.09793  0.04195  1.0000
  C   C22       1.0  0.16311  0.07963  0.06636  1.0000
  C   C23       1.0  0.14033  0.05473  0.02962  1.0000
  C   C24       1.0  0.09672  0.03975  0.02821  1.0000
  H   H1        1.0  0.08835  0.91164  0.93590  1.0000
  H   H2        1.0  0.10049  0.86755  0.97331  1.0000
  H   H3        1.0  0.04650  0.87283  0.95018  1.0000
  H   H4        1.0  0.04753  0.89959  0.02913  1.0000
  H   H5        1.0  0.09128  0.93621  0.01671  1.0000
  H   H6        1.0  0.98099  0.90601  0.97365  1.0000
  H   H7        1.0  0.96506  0.96152  0.96317  1.0000
  H   H8        1.0  0.96105  0.97594  0.04607  1.0000
  H   H9        1.0  0.97551  0.92029  0.05594  1.0000
  H   H10       1.0  0.89833  0.92781  0.06740  1.0000
  H   H11       1.0  0.86483  0.87297  0.01694  1.0000
  H   H12       1.0  0.90991  0.87777  0.97951  1.0000
  H   H13       1.0  0.91915  0.85725  0.03387  1.0000
  H   H14       1.0  0.79832  0.00361  0.00637  1.0000
  H   H15       1.0  0.78766  0.07889  0.00680  1.0000
  H   H16       1.0  0.82335  0.07460  0.05301  1.0000
  H   H17       1.0  0.85000  0.13738  0.00642  1.0000
  H   H18       1.0  0.90327  0.11820  0.94982  1.0000
  H   H19       1.0  0.92101  0.03486  0.95521  1.0000
  H   H20       1.0  0.88844  0.04814  0.90877  1.0000
  H   H21       1.0  0.82580  0.01020  0.93328  1.0000
  H   H22       1.0  0.10080  0.99029  0.92537  1.0000
  H   H23       1.0  0.17945  0.01655  0.92965  1.0000
  H   H24       1.0  0.23019  0.08138  0.97592  1.0000
  H   H25       1.0  0.23710  0.03809  0.01658  1.0000
  H   H26       1.0  0.19583  0.13032  0.02702  1.0000
  H   H27       1.0  0.23243  0.10346  0.06440  1.0000
  H   H28       1.0  0.14258  0.10654  0.07987  1.0000
  H   H29       1.0  0.17275  0.05661  0.09299  1.0000
  H   H30       1.0  0.07361  0.04634  0.05526  1.0000
