data_image0
_chemical_formula_structural       C2NCNC3ClC6O2C4H19
_chemical_formula_sum              "C16 N2 Cl1 O2 H19"
_cell_length_a       30
_cell_length_b       30
_cell_length_c       30
_cell_angle_alpha    90
_cell_angle_beta     90
_cell_angle_gamma    90

_space_group_name_H-M_alt    "P 1"
_space_group_IT_number       1

loop_
  _space_group_symop_operation_xyz
  'x, y, z'

loop_
  _atom_site_type_symbol
  _atom_site_label
  _atom_site_symmetry_multiplicity
  _atom_site_fract_x
  _atom_site_fract_y
  _atom_site_fract_z
  _atom_site_occupancy
  C   C1        1.0  0.97490  0.00771  0.89069  1.0000
  C   C2        1.0  0.97621  0.03300  0.93465  1.0000
  N   N1        1.0  0.96589  0.00281  0.97186  1.0000
  C   C3        1.0  0.00413  0.99361  0.99667  1.0000
  N   N2        1.0  0.02821  0.95854  0.98124  1.0000
  C   C4        1.0  0.06472  0.94467  0.00316  1.0000
  C   C5        1.0  0.08839  0.90844  0.98697  1.0000
  C   C6        1.0  0.12632  0.89283  0.00881  1.0000
  Cl  Cl1       1.0  0.15492  0.84782  0.98769  1.0000
  C   C7        1.0  0.14128  0.91333  0.04759  1.0000
  C   C8        1.0  0.11806  0.94984  0.06443  1.0000
  C   C9        1.0  0.07990  0.96562  0.04231  1.0000
  C   C10       1.0  0.05595  0.00237  0.05782  1.0000
  C   C11       1.0  0.01831  0.01690  0.03446  1.0000
  C   C12       1.0  0.99597  0.05680  0.05175  1.0000
  O   O1        1.0  0.98161  0.05983  0.08966  1.0000
  O   O2        1.0  0.99689  0.08936  0.02045  1.0000
  C   C13       1.0  0.97755  0.13044  0.03472  1.0000
  C   C14       1.0  0.92237  0.00703  0.99465  1.0000
  C   C15       1.0  0.91537  0.96993  0.02928  1.0000
  C   C16       1.0  0.88394  0.00368  0.96097  1.0000
  H   H1        1.0  0.98308  0.03006  0.86306  1.0000
  H   H2        1.0  0.99893  0.98026  0.89054  1.0000
  H   H3        1.0  0.94190  0.99357  0.88435  1.0000
  H   H4        1.0  0.95257  0.06083  0.93357  1.0000
  H   H5        1.0  0.00925  0.04844  0.93809  1.0000
  H   H6        1.0  0.07680  0.89220  0.95673  1.0000
  H   H7        1.0  0.17080  0.90113  0.06472  1.0000
  H   H8        1.0  0.12982  0.96584  0.09478  1.0000
  H   H9        1.0  0.06645  0.02003  0.08772  1.0000
  H   H10       1.0  0.94155  0.12646  0.03927  1.0000
  H   H11       1.0  0.99325  0.14224  0.06549  1.0000
  H   H12       1.0  0.98330  0.15527  0.00864  1.0000
  H   H13       1.0  0.91977  0.03949  0.01117  1.0000
  H   H14       1.0  0.91940  0.93690  0.01423  1.0000
  H   H15       1.0  0.93883  0.97240  0.05704  1.0000
  H   H16       1.0  0.88185  0.97178  0.04366  1.0000
  H   H17       1.0  0.88447  0.03109  0.93691  1.0000
  H   H18       1.0  0.85165  0.00513  0.97795  1.0000
  H   H19       1.0  0.88542  0.97233  0.94227  1.0000
