data_image0
_chemical_formula_structural       C2NC3ONC3NC2OC3O2H25
_chemical_formula_sum              "C13 N3 O4 H25"
_cell_length_a       30
_cell_length_b       30
_cell_length_c       30
_cell_angle_alpha    90
_cell_angle_beta     90
_cell_angle_gamma    90

_space_group_name_H-M_alt    "P 1"
_space_group_IT_number       1

loop_
  _space_group_symop_operation_xyz
  'x, y, z'

loop_
  _atom_site_type_symbol
  _atom_site_label
  _atom_site_symmetry_multiplicity
  _atom_site_fract_x
  _atom_site_fract_y
  _atom_site_fract_z
  _atom_site_occupancy
  C   C1        1.0  0.15879  0.97713  0.08100  1.0000
  C   C2        1.0  0.11886  0.95227  0.06207  1.0000
  N   N1        1.0  0.09449  0.97894  0.02934  1.0000
  C   C3        1.0  0.10989  0.97660  0.98305  1.0000
  C   C4        1.0  0.08678  0.93943  0.95745  1.0000
  C   C5        1.0  0.06149  0.00726  0.04504  1.0000
  O   O1        1.0  0.05320  0.01217  0.08483  1.0000
  N   N2        1.0  0.03825  0.02966  0.01253  1.0000
  C   C6        1.0  0.00094  0.05762  0.02528  1.0000
  C   C7        1.0  0.98178  0.08400  0.98635  1.0000
  C   C8        1.0  0.96001  0.05644  0.94904  1.0000
  N   N3        1.0  0.92090  0.02972  0.95973  1.0000
  C   C9        1.0  0.88520  0.05182  0.98432  1.0000
  C   C10       1.0  0.84419  0.02123  0.98682  1.0000
  O   O2        1.0  0.85212  0.97887  0.00738  1.0000
  C   C11       1.0  0.89826  0.96813  0.01310  1.0000
  C   C12       1.0  0.92907  0.98355  0.97499  1.0000
  C   C13       1.0  0.92518  0.95045  0.93652  1.0000
  O   O3        1.0  0.94723  0.91629  0.93295  1.0000
  O   O4        1.0  0.89430  0.96036  0.90542  1.0000
  H   H1        1.0  0.14849  0.00800  0.09752  1.0000
  H   H2        1.0  0.18249  0.98600  0.05471  1.0000
  H   H3        1.0  0.17617  0.95638  0.10545  1.0000
  H   H4        1.0  0.09637  0.94320  0.08940  1.0000
  H   H5        1.0  0.12956  0.92112  0.04629  1.0000
  H   H6        1.0  0.14602  0.97129  0.98293  1.0000
  H   H7        1.0  0.10402  0.00852  0.96636  1.0000
  H   H8        1.0  0.05060  0.94404  0.95697  1.0000
  H   H9        1.0  0.09355  0.90692  0.97257  1.0000
  H   H10       1.0  0.09862  0.93859  0.92295  1.0000
  H   H11       1.0  0.03467  0.01186  0.98433  1.0000
  H   H12       1.0  0.97562  0.03671  0.04117  1.0000
  H   H13       1.0  0.01285  0.08094  0.05079  1.0000
  H   H14       1.0  0.95752  0.10809  0.99931  1.0000
  H   H15       1.0  0.00859  0.10389  0.97134  1.0000
  H   H16       1.0  0.98523  0.03559  0.93270  1.0000
  H   H17       1.0  0.94977  0.08018  0.92312  1.0000
  H   H18       1.0  0.87568  0.08287  0.96762  1.0000
  H   H19       1.0  0.89609  0.06012  0.01821  1.0000
  H   H20       1.0  0.81762  0.03768  0.00569  1.0000
  H   H21       1.0  0.83106  0.01486  0.95332  1.0000
  H   H22       1.0  0.90901  0.98344  0.04452  1.0000
  H   H23       1.0  0.90035  0.93197  0.01779  1.0000
  H   H24       1.0  0.96344  0.98025  0.98686  1.0000
  H   H25       1.0  0.89569  0.93556  0.88431  1.0000
