data_image0
_chemical_formula_structural       C2NC2NCOC15H24
_chemical_formula_sum              "C20 N2 O1 H24"
_cell_length_a       30
_cell_length_b       30
_cell_length_c       30
_cell_angle_alpha    90
_cell_angle_beta     90
_cell_angle_gamma    90

_space_group_name_H-M_alt    "P 1"
_space_group_IT_number       1

loop_
  _space_group_symop_operation_xyz
  'x, y, z'

loop_
  _atom_site_type_symbol
  _atom_site_label
  _atom_site_symmetry_multiplicity
  _atom_site_fract_x
  _atom_site_fract_y
  _atom_site_fract_z
  _atom_site_occupancy
  C   C1        1.0  0.78047  0.96579  0.00561  1.0000
  C   C2        1.0  0.81977  0.96256  0.03769  1.0000
  N   N1        1.0  0.86144  0.97839  0.01770  1.0000
  C   C3        1.0  0.90044  0.96643  0.04479  1.0000
  C   C4        1.0  0.94412  0.98047  0.02164  1.0000
  N   N2        1.0  0.94414  0.02712  0.00704  1.0000
  C   C5        1.0  0.97857  0.04752  0.98422  1.0000
  O   O1        1.0  0.97795  0.08648  0.97165  1.0000
  C   C6        1.0  0.01853  0.01979  0.97454  1.0000
  C   C7        1.0  0.02202  0.00311  0.92773  1.0000
  C   C8        1.0  0.04829  0.01539  0.00776  1.0000
  C   C9        1.0  0.09049  0.99086  0.00378  1.0000
  C   C10       1.0  0.08953  0.94485  0.01203  1.0000
  C   C11       1.0  0.12830  0.91963  0.00879  1.0000
  C   C12       1.0  0.16834  0.94016  0.99729  1.0000
  C   C13       1.0  0.17027  0.98614  0.98880  1.0000
  C   C14       1.0  0.21088  0.00635  0.97718  1.0000
  C   C15       1.0  0.21333  0.05196  0.96854  1.0000
  C   C16       1.0  0.17516  0.07799  0.97138  1.0000
  C   C17       1.0  0.13453  0.05842  0.98292  1.0000
  C   C18       1.0  0.13103  0.01227  0.99192  1.0000
  C   C19       1.0  0.90400  0.05258  0.01728  1.0000
  C   C20       1.0  0.86076  0.02656  0.00696  1.0000
  H   H1        1.0  0.77244  0.00037  0.99726  1.0000
  H   H2        1.0  0.75079  0.95094  0.02078  1.0000
  H   H3        1.0  0.78735  0.94780  0.97459  1.0000
  H   H4        1.0  0.81228  0.98078  0.06850  1.0000
  H   H5        1.0  0.82334  0.92731  0.04676  1.0000
  H   H6        1.0  0.89832  0.98215  0.07777  1.0000
  H   H7        1.0  0.90160  0.93030  0.05013  1.0000
  H   H8        1.0  0.97201  0.97545  0.04463  1.0000
  H   H9        1.0  0.94989  0.95955  0.99224  1.0000
  H   H10       1.0  0.05351  0.98597  0.92114  1.0000
  H   H11       1.0  0.01959  0.03083  0.90409  1.0000
  H   H12       1.0  0.99499  0.97964  0.92063  1.0000
  H   H13       1.0  0.04266  0.03096  0.04004  1.0000
  H   H14       1.0  0.05848  0.92845  0.02100  1.0000
  H   H15       1.0  0.12739  0.88399  0.01518  1.0000
  H   H16       1.0  0.19830  0.91985  0.99493  1.0000
  H   H17       1.0  0.24117  0.98655  0.97472  1.0000
  H   H18       1.0  0.24500  0.06706  0.95956  1.0000
  H   H19       1.0  0.17677  0.11354  0.96458  1.0000
  H   H20       1.0  0.10525  0.07978  0.98471  1.0000
  H   H21       1.0  0.90546  0.06031  0.05300  1.0000
  H   H22       1.0  0.90359  0.08444  0.99947  1.0000
  H   H23       1.0  0.83353  0.04383  0.02423  1.0000
  H   H24       1.0  0.85394  0.02931  0.97114  1.0000
