data_image0
_chemical_formula_structural       C2NCOC5OC3NCOC7OCONC5OH33
_chemical_formula_sum              "C25 N3 O6 H33"
_cell_length_a       30
_cell_length_b       30
_cell_length_c       30
_cell_angle_alpha    90
_cell_angle_beta     90
_cell_angle_gamma    90

_space_group_name_H-M_alt    "P 1"
_space_group_IT_number       1

loop_
  _space_group_symop_operation_xyz
  'x, y, z'

loop_
  _atom_site_type_symbol
  _atom_site_label
  _atom_site_symmetry_multiplicity
  _atom_site_fract_x
  _atom_site_fract_y
  _atom_site_fract_z
  _atom_site_occupancy
  C   C1        1.0  0.87817  0.13540  0.97454  1.0000
  C   C2        1.0  0.91756  0.11026  0.95443  1.0000
  N   N1        1.0  0.92681  0.06732  0.97561  1.0000
  C   C3        1.0  0.95270  0.06906  0.01361  1.0000
  O   O1        1.0  0.95087  0.09969  0.04085  1.0000
  C   C4        1.0  0.98906  0.03429  0.01717  1.0000
  C   C5        1.0  0.98048  0.98724  0.99923  1.0000
  C   C6        1.0  0.98679  0.98461  0.94761  1.0000
  C   C7        1.0  0.97643  0.93917  0.92629  1.0000
  C   C8        1.0  0.01793  0.91426  0.91084  1.0000
  O   O2        1.0  0.00445  0.87369  0.89050  1.0000
  C   C9        1.0  0.01378  0.95410  0.02291  1.0000
  C   C10       1.0  0.06410  0.96063  0.01556  1.0000
  C   C11       1.0  0.08659  0.99083  0.05005  1.0000
  N   N2        1.0  0.13417  0.99390  0.04210  1.0000
  C   C12       1.0  0.15281  0.02034  0.00990  1.0000
  O   O3        1.0  0.13449  0.04502  0.98343  1.0000
  C   C13       1.0  0.20090  0.01277  0.01195  1.0000
  C   C14       1.0  0.23513  0.03124  0.98731  1.0000
  C   C15       1.0  0.27843  0.01685  0.99695  1.0000
  C   C16       1.0  0.28631  0.98481  0.03047  1.0000
  C   C17       1.0  0.25105  0.96653  0.05488  1.0000
  C   C18       1.0  0.20864  0.98129  0.04476  1.0000
  C   C19       1.0  0.16551  0.96873  0.06366  1.0000
  O   O4        1.0  0.16052  0.94076  0.09257  1.0000
  C   C20       1.0  0.93281  0.97389  0.01338  1.0000
  O   O5        1.0  0.92738  0.94355  0.04072  1.0000
  N   N3        1.0  0.89620  0.99629  0.99514  1.0000
  C   C21       1.0  0.85300  0.97414  0.00177  1.0000
  C   C22       1.0  0.83097  0.98682  0.04651  1.0000
  C   C23       1.0  0.79102  0.95640  0.05539  1.0000
  C   C24       1.0  0.81605  0.03559  0.04725  1.0000
  C   C25       1.0  0.89555  0.03387  0.96760  1.0000
  O   O6        1.0  0.86718  0.03805  0.93809  1.0000
  H   H1        1.0  0.87367  0.16725  0.95735  1.0000
  H   H2        1.0  0.88331  0.14240  0.00994  1.0000
  H   H3        1.0  0.84712  0.11652  0.97143  1.0000
  H   H4        1.0  0.91152  0.10465  0.91882  1.0000
  H   H5        1.0  0.94750  0.13109  0.95706  1.0000
  H   H6        1.0  0.01869  0.04866  0.00131  1.0000
  H   H7        1.0  0.99593  0.03197  0.05307  1.0000
  H   H8        1.0  0.02052  0.99530  0.93850  1.0000
  H   H9        1.0  0.96546  0.00883  0.93077  1.0000
  H   H10       1.0  0.95520  0.94465  0.89695  1.0000
  H   H11       1.0  0.95655  0.91778  0.94824  1.0000
  H   H12       1.0  0.03647  0.93391  0.88632  1.0000
  H   H13       1.0  0.03992  0.90629  0.93873  1.0000
  H   H14       1.0  0.03132  0.85852  0.88056  1.0000
  H   H15       1.0  0.00741  0.95389  0.05897  1.0000
  H   H16       1.0  0.00564  0.92015  0.01192  1.0000
  H   H17       1.0  0.07993  0.92769  0.01792  1.0000
  H   H18       1.0  0.07136  0.97242  0.98185  1.0000
  H   H19       1.0  0.07320  0.02466  0.04844  1.0000
  H   H20       1.0  0.08102  0.97781  0.08372  1.0000
  H   H21       1.0  0.22855  0.05586  0.96161  1.0000
  H   H22       1.0  0.30648  0.03048  0.97839  1.0000
  H   H23       1.0  0.32034  0.97417  0.03732  1.0000
  H   H24       1.0  0.25661  0.94180  0.08068  1.0000
  H   H25       1.0  0.83007  0.98183  0.97439  1.0000
  H   H26       1.0  0.85825  0.93795  0.00048  1.0000
  H   H27       1.0  0.85491  0.98203  0.07371  1.0000
  H   H28       1.0  0.80141  0.92142  0.05664  1.0000
  H   H29       1.0  0.77543  0.96446  0.08739  1.0000
  H   H30       1.0  0.76572  0.95976  0.02930  1.0000
  H   H31       1.0  0.79860  0.04332  0.07840  1.0000
  H   H32       1.0  0.79341  0.04294  0.01957  1.0000
  H   H33       1.0  0.84461  0.05818  0.04494  1.0000
