data_image0
_chemical_formula_structural       C2NCOC2NCSC2ONC4BrC3SC6H22
_chemical_formula_sum              "C21 N3 O2 S2 Br1 H22"
_cell_length_a       30
_cell_length_b       30
_cell_length_c       30
_cell_angle_alpha    90
_cell_angle_beta     90
_cell_angle_gamma    90

_space_group_name_H-M_alt    "P 1"
_space_group_IT_number       1

loop_
  _space_group_symop_operation_xyz
  'x, y, z'

loop_
  _atom_site_type_symbol
  _atom_site_label
  _atom_site_symmetry_multiplicity
  _atom_site_fract_x
  _atom_site_fract_y
  _atom_site_fract_z
  _atom_site_occupancy
  C   C1        1.0  0.02856  0.93777  0.11957  1.0000
  C   C2        1.0  0.03708  0.91879  0.07325  1.0000
  N   N1        1.0  0.05026  0.95355  0.04146  1.0000
  C   C3        1.0  0.09611  0.96259  0.03926  1.0000
  O   O1        1.0  0.12412  0.94354  0.06231  1.0000
  C   C4        1.0  0.10849  0.99689  0.00751  1.0000
  C   C5        1.0  0.07484  0.01776  0.98445  1.0000
  N   N2        1.0  0.03071  0.00950  0.98812  1.0000
  C   C6        1.0  0.02015  0.97817  0.01596  1.0000
  S   S1        1.0  0.96300  0.96713  0.02217  1.0000
  C   C7        1.0  0.94538  0.97409  0.96460  1.0000
  C   C8        1.0  0.89608  0.96311  0.96055  1.0000
  O   O2        1.0  0.88378  0.92846  0.94259  1.0000
  N   N3        1.0  0.86909  0.99606  0.97859  1.0000
  C   C9        1.0  0.82203  0.99784  0.97979  1.0000
  C   C10       1.0  0.79524  0.96529  0.95973  1.0000
  C   C11       1.0  0.74873  0.96804  0.96138  1.0000
  C   C12       1.0  0.72856  0.00356  0.98312  1.0000
  Br  Br1       1.0  0.66574  0.00744  0.98534  1.0000
  C   C13       1.0  0.75448  0.03638  0.00324  1.0000
  C   C14       1.0  0.80132  0.03398  0.00185  1.0000
  C   C15       1.0  0.82755  0.07051  0.02416  1.0000
  S   S2        1.0  0.09467  0.05754  0.94898  1.0000
  C   C16       1.0  0.14827  0.04727  0.96439  1.0000
  C   C17       1.0  0.15165  0.01362  0.99573  1.0000
  C   C18       1.0  0.19580  0.99917  0.01433  1.0000
  C   C19       1.0  0.23493  0.01603  0.98585  1.0000
  C   C20       1.0  0.22899  0.06506  0.97249  1.0000
  C   C21       1.0  0.18671  0.07209  0.94445  1.0000
  H   H1        1.0  0.00167  0.96240  0.11919  1.0000
  H   H2        1.0  0.01920  0.91107  0.14261  1.0000
  H   H3        1.0  0.05837  0.95420  0.13273  1.0000
  H   H4        1.0  0.00761  0.90096  0.06134  1.0000
  H   H5        1.0  0.06358  0.89372  0.07547  1.0000
  H   H6        1.0  0.95077  0.00835  0.95322  1.0000
  H   H7        1.0  0.96426  0.95160  0.94292  1.0000
  H   H8        1.0  0.88544  0.02094  0.99445  1.0000
  H   H9        1.0  0.80950  0.93699  0.94227  1.0000
  H   H10       1.0  0.72887  0.94220  0.94554  1.0000
  H   H11       1.0  0.73825  0.06406  0.02015  1.0000
  H   H12       1.0  0.84838  0.08786  0.99972  1.0000
  H   H13       1.0  0.80571  0.09543  0.03949  1.0000
  H   H14       1.0  0.84855  0.05668  0.05062  1.0000
  H   H15       1.0  0.19753  0.96276  0.01648  1.0000
  H   H16       1.0  0.19896  0.01241  0.04826  1.0000
  H   H17       1.0  0.26615  0.01181  0.00436  1.0000
  H   H18       1.0  0.23765  0.99567  0.95558  1.0000
  H   H19       1.0  0.22715  0.08554  0.00276  1.0000
  H   H20       1.0  0.25812  0.07650  0.95365  1.0000
  H   H21       1.0  0.19247  0.05975  0.91051  1.0000
  H   H22       1.0  0.17951  0.10784  0.94215  1.0000
