data_image0
_chemical_formula_structural       C2NC3ONC4OC5NC4NH18
_chemical_formula_sum              "C18 N4 O2 H18"
_cell_length_a       30
_cell_length_b       30
_cell_length_c       30
_cell_angle_alpha    90
_cell_angle_beta     90
_cell_angle_gamma    90

_space_group_name_H-M_alt    "P 1"
_space_group_IT_number       1

loop_
  _space_group_symop_operation_xyz
  'x, y, z'

loop_
  _atom_site_type_symbol
  _atom_site_label
  _atom_site_symmetry_multiplicity
  _atom_site_fract_x
  _atom_site_fract_y
  _atom_site_fract_z
  _atom_site_occupancy
  C   C1        1.0  0.25372  0.00743  0.92927  1.0000
  C   C2        1.0  0.24008  0.01968  0.97643  1.0000
  N   N1        1.0  0.20477  0.99119  0.99317  1.0000
  C   C3        1.0  0.16004  0.00010  0.99302  1.0000
  C   C4        1.0  0.13939  0.96364  0.01239  1.0000
  C   C5        1.0  0.09232  0.95476  0.02092  1.0000
  O   O1        1.0  0.08105  0.91989  0.03894  1.0000
  N   N2        1.0  0.06385  0.98828  0.00702  1.0000
  C   C6        1.0  0.01700  0.98959  0.01062  1.0000
  C   C7        1.0  0.99540  0.02739  0.99372  1.0000
  C   C8        1.0  0.94891  0.03156  0.99585  1.0000
  C   C9        1.0  0.92338  0.99785  0.01500  1.0000
  O   O2        1.0  0.87804  0.99747  0.01927  1.0000
  C   C10       1.0  0.85423  0.03500  0.00228  1.0000
  C   C11       1.0  0.80498  0.02787  0.00860  1.0000
  C   C12       1.0  0.78459  0.98683  0.00008  1.0000
  C   C13       1.0  0.73869  0.98233  0.00515  1.0000
  C   C14       1.0  0.71443  0.01934  0.01823  1.0000
  N   N3        1.0  0.73272  0.05966  0.02627  1.0000
  C   C15       1.0  0.77741  0.06296  0.02126  1.0000
  C   C16       1.0  0.94483  0.96021  0.03190  1.0000
  C   C17       1.0  0.99126  0.95600  0.02977  1.0000
  C   C18       1.0  0.17536  0.93493  0.02295  1.0000
  N   N4        1.0  0.21496  0.95160  0.01135  1.0000
  H   H1        1.0  0.22549  0.01019  0.90629  1.0000
  H   H2        1.0  0.26608  0.97312  0.92761  1.0000
  H   H3        1.0  0.28018  0.02964  0.91756  1.0000
  H   H4        1.0  0.22807  0.05414  0.97770  1.0000
  H   H5        1.0  0.26839  0.01684  0.99932  1.0000
  H   H6        1.0  0.14756  0.03097  0.97933  1.0000
  H   H7        1.0  0.07811  0.01502  0.99248  1.0000
  H   H8        1.0  0.01435  0.05430  0.97857  1.0000
  H   H9        1.0  0.93398  0.06155  0.98226  1.0000
  H   H10       1.0  0.86058  0.03912  0.96651  1.0000
  H   H11       1.0  0.86467  0.06504  0.02033  1.0000
  H   H12       1.0  0.80440  0.95828  0.98971  1.0000
  H   H13       1.0  0.72229  0.95072  0.99902  1.0000
  H   H14       1.0  0.67854  0.01750  0.02266  1.0000
  H   H15       1.0  0.79074  0.09597  0.02798  1.0000
  H   H16       1.0  0.92531  0.93365  0.04702  1.0000
  H   H17       1.0  0.00599  0.92595  0.04350  1.0000
  H   H18       1.0  0.17384  0.90246  0.03871  1.0000
