data_image0
_chemical_formula_structural       C2NCSN2C2NCOSC6H12
_chemical_formula_sum              "C12 N4 S2 O1 H12"
_cell_length_a       30
_cell_length_b       30
_cell_length_c       30
_cell_angle_alpha    90
_cell_angle_beta     90
_cell_angle_gamma    90

_space_group_name_H-M_alt    "P 1"
_space_group_IT_number       1

loop_
  _space_group_symop_operation_xyz
  'x, y, z'

loop_
  _atom_site_type_symbol
  _atom_site_label
  _atom_site_symmetry_multiplicity
  _atom_site_fract_x
  _atom_site_fract_y
  _atom_site_fract_z
  _atom_site_occupancy
  C   C1        1.0  0.87461  0.98056  0.04716  1.0000
  C   C2        1.0  0.89102  0.96151  0.00314  1.0000
  N   N1        1.0  0.91977  0.99286  0.97949  1.0000
  C   C3        1.0  0.90655  0.02521  0.94981  1.0000
  S   S1        1.0  0.85635  0.03755  0.93045  1.0000
  N   N2        1.0  0.94499  0.04757  0.93748  1.0000
  N   N3        1.0  0.98094  0.03033  0.95918  1.0000
  C   C4        1.0  0.96441  0.99862  0.98402  1.0000
  C   C5        1.0  0.99274  0.96899  0.01368  1.0000
  N   N4        1.0  0.02929  0.99325  0.03364  1.0000
  C   C6        1.0  0.02371  0.01478  0.07414  1.0000
  O   O1        1.0  0.99010  0.01503  0.09715  1.0000
  S   S2        1.0  0.07352  0.04254  0.08926  1.0000
  C   C7        1.0  0.09989  0.02545  0.03933  1.0000
  C   C8        1.0  0.14284  0.03533  0.02546  1.0000
  C   C9        1.0  0.15715  0.01880  0.98440  1.0000
  C   C10       1.0  0.12849  0.99299  0.95801  1.0000
  C   C11       1.0  0.08522  0.98322  0.97238  1.0000
  C   C12       1.0  0.07123  0.99954  0.01337  1.0000
  H   H1        1.0  0.85335  0.95636  0.06428  1.0000
  H   H2        1.0  0.90247  0.98883  0.06920  1.0000
  H   H3        1.0  0.85525  0.01105  0.04197  1.0000
  H   H4        1.0  0.90960  0.93071  0.00918  1.0000
  H   H5        1.0  0.86245  0.95307  0.98207  1.0000
  H   H6        1.0  0.94739  0.07384  0.91640  1.0000
  H   H7        1.0  0.00533  0.94101  0.99394  1.0000
  H   H8        1.0  0.97236  0.95492  0.04042  1.0000
  H   H9        1.0  0.16484  0.05555  0.04586  1.0000
  H   H10       1.0  0.19066  0.02619  0.97266  1.0000
  H   H11       1.0  0.13998  0.98065  0.92589  1.0000
  H   H12       1.0  0.06353  0.96368  0.95108  1.0000
