data_image0
_chemical_formula_structural       C2NC2NCSC8OC2F2H18
_chemical_formula_sum              "C15 N2 S1 O1 F2 H18"
_cell_length_a       30
_cell_length_b       30
_cell_length_c       30
_cell_angle_alpha    90
_cell_angle_beta     90
_cell_angle_gamma    90

_space_group_name_H-M_alt    "P 1"
_space_group_IT_number       1

loop_
  _space_group_symop_operation_xyz
  'x, y, z'

loop_
  _atom_site_type_symbol
  _atom_site_label
  _atom_site_symmetry_multiplicity
  _atom_site_fract_x
  _atom_site_fract_y
  _atom_site_fract_z
  _atom_site_occupancy
  C   C1        1.0  0.89180  0.05085  0.07413  1.0000
  C   C2        1.0  0.87873  0.04481  0.02553  1.0000
  N   N1        1.0  0.91279  0.06050  0.99500  1.0000
  C   C3        1.0  0.91422  0.10263  0.97701  1.0000
  C   C4        1.0  0.95032  0.10237  0.94877  1.0000
  N   N2        1.0  0.97113  0.06165  0.94952  1.0000
  C   C5        1.0  0.94785  0.03698  0.97727  1.0000
  S   S1        1.0  0.95930  0.98199  0.99127  1.0000
  C   C6        1.0  0.00748  0.96983  0.95539  1.0000
  C   C7        1.0  0.99122  0.95303  0.90999  1.0000
  C   C8        1.0  0.03845  0.93739  0.97908  1.0000
  C   C9        1.0  0.02878  0.89159  0.98168  1.0000
  C   C10       1.0  0.05751  0.86221  0.00359  1.0000
  C   C11       1.0  0.09641  0.87801  0.02334  1.0000
  C   C12       1.0  0.10642  0.92328  0.02165  1.0000
  C   C13       1.0  0.07728  0.95266  0.00038  1.0000
  O   O1        1.0  0.08855  0.99692  0.99863  1.0000
  C   C14       1.0  0.07550  0.01926  0.03902  1.0000
  C   C15       1.0  0.07754  0.06934  0.03194  1.0000
  F   F1        1.0  0.05368  0.09007  0.06442  1.0000
  F   F2        1.0  0.12044  0.08349  0.03673  1.0000
  H   H1        1.0  0.89672  0.08613  0.08202  1.0000
  H   H2        1.0  0.86566  0.03776  0.09591  1.0000
  H   H3        1.0  0.92287  0.03337  0.08201  1.0000
  H   H4        1.0  0.84815  0.06369  0.01844  1.0000
  H   H5        1.0  0.87147  0.00979  0.01812  1.0000
  H   H6        1.0  0.89029  0.12832  0.98537  1.0000
  H   H7        1.0  0.96242  0.12939  0.92809  1.0000
  H   H8        1.0  0.02597  0.00064  0.94897  1.0000
  H   H9        1.0  0.96965  0.92363  0.91264  1.0000
  H   H10       1.0  0.97242  0.97902  0.89238  1.0000
  H   H11       1.0  0.01963  0.94397  0.88882  1.0000
  H   H12       1.0  0.99855  0.87825  0.96678  1.0000
  H   H13       1.0  0.04955  0.82686  0.00503  1.0000
  H   H14       1.0  0.11893  0.85502  0.03992  1.0000
  H   H15       1.0  0.13695  0.93563  0.03663  1.0000
  H   H16       1.0  0.09846  0.00988  0.06598  1.0000
  H   H17       1.0  0.04166  0.00992  0.04855  1.0000
  H   H18       1.0  0.06525  0.07989  0.99916  1.0000
