data_image0
_chemical_formula_structural       C2N2CNC4ClCONCH15
_chemical_formula_sum              "C9 N4 Cl1 O1 H15"
_cell_length_a       30
_cell_length_b       30
_cell_length_c       30
_cell_angle_alpha    90
_cell_angle_beta     90
_cell_angle_gamma    90

_space_group_name_H-M_alt    "P 1"
_space_group_IT_number       1

loop_
  _space_group_symop_operation_xyz
  'x, y, z'

loop_
  _atom_site_type_symbol
  _atom_site_label
  _atom_site_symmetry_multiplicity
  _atom_site_fract_x
  _atom_site_fract_y
  _atom_site_fract_z
  _atom_site_occupancy
  C   C1        1.0  0.09708  0.97308  0.95421  1.0000
  C   C2        1.0  0.07132  0.95528  0.99400  1.0000
  N   N1        1.0  0.06125  0.98989  0.02608  1.0000
  N   N2        1.0  0.09242  0.00152  0.05627  1.0000
  C   C3        1.0  0.07168  0.03369  0.07874  1.0000
  N   N3        1.0  0.03019  0.04414  0.06352  1.0000
  C   C4        1.0  0.02378  0.01596  0.03030  1.0000
  C   C5        1.0  0.98358  0.01367  0.00053  1.0000
  C   C6        1.0  0.95112  0.05270  0.00848  1.0000
  C   C7        1.0  0.97084  0.09760  0.99495  1.0000
  Cl  Cl1       1.0  0.92889  0.13964  0.99664  1.0000
  C   C8        1.0  0.95931  0.96906  0.00697  1.0000
  O   O1        1.0  0.96834  0.94217  0.03648  1.0000
  N   N4        1.0  0.92741  0.96010  0.97483  1.0000
  C   C9        1.0  0.90005  0.92064  0.97790  1.0000
  H   H1        1.0  0.12884  0.98779  0.96455  1.0000
  H   H2        1.0  0.07807  0.99885  0.93669  1.0000
  H   H3        1.0  0.10417  0.94615  0.93065  1.0000
  H   H4        1.0  0.09061  0.92954  0.01130  1.0000
  H   H5        1.0  0.04020  0.93997  0.98294  1.0000
  H   H6        1.0  0.08735  0.05027  0.10669  1.0000
  H   H7        1.0  0.99503  0.01470  0.96577  1.0000
  H   H8        1.0  0.92045  0.04726  0.98935  1.0000
  H   H9        1.0  0.94090  0.05372  0.04362  1.0000
  H   H10       1.0  0.99769  0.10830  0.01708  1.0000
  H   H11       1.0  0.98361  0.09657  0.96080  1.0000
  H   H12       1.0  0.91662  0.98486  0.95465  1.0000
  H   H13       1.0  0.88362  0.91542  0.94583  1.0000
  H   H14       1.0  0.92054  0.89168  0.98623  1.0000
  H   H15       1.0  0.87506  0.92576  0.00393  1.0000
