data_image0
_chemical_formula_structural       C2NCOCSCONC2NC7H25
_chemical_formula_sum              "C14 N3 O2 S1 H25"
_cell_length_a       30
_cell_length_b       30
_cell_length_c       30
_cell_angle_alpha    90
_cell_angle_beta     90
_cell_angle_gamma    90

_space_group_name_H-M_alt    "P 1"
_space_group_IT_number       1

loop_
  _space_group_symop_operation_xyz
  'x, y, z'

loop_
  _atom_site_type_symbol
  _atom_site_label
  _atom_site_symmetry_multiplicity
  _atom_site_fract_x
  _atom_site_fract_y
  _atom_site_fract_z
  _atom_site_occupancy
  C   C1        1.0  0.10467  0.03696  0.07167  1.0000
  C   C2        1.0  0.07082  0.03671  0.03404  1.0000
  N   N1        1.0  0.07320  0.99574  0.00824  1.0000
  C   C3        1.0  0.04673  0.95898  0.01790  1.0000
  O   O1        1.0  0.02301  0.95464  0.05076  1.0000
  C   C4        1.0  0.05167  0.92537  0.98048  1.0000
  S   S1        1.0  0.99908  0.91361  0.95289  1.0000
  C   C5        1.0  0.98092  0.96801  0.94213  1.0000
  O   O2        1.0  0.99907  0.98923  0.91233  1.0000
  N   N2        1.0  0.94585  0.98435  0.96765  1.0000
  C   C6        1.0  0.92244  0.95939  0.00287  1.0000
  C   C7        1.0  0.90338  0.99029  0.03918  1.0000
  N   N3        1.0  0.88162  0.96612  0.07569  1.0000
  C   C8        1.0  0.87079  0.02439  0.01934  1.0000
  C   C9        1.0  0.87941  0.03388  0.96998  1.0000
  C   C10       1.0  0.92834  0.02873  0.95612  1.0000
  C   C11       1.0  0.95759  0.06596  0.97529  1.0000
  C   C12       1.0  0.08841  0.94473  0.95087  1.0000
  C   C13       1.0  0.09201  0.99389  0.96379  1.0000
  C   C14       1.0  0.13983  0.01074  0.96088  1.0000
  H   H1        1.0  0.10204  0.06785  0.09090  1.0000
  H   H2        1.0  0.09924  0.00889  0.09436  1.0000
  H   H3        1.0  0.13872  0.03439  0.05881  1.0000
  H   H4        1.0  0.07593  0.06520  0.01181  1.0000
  H   H5        1.0  0.03727  0.03968  0.04816  1.0000
  H   H6        1.0  0.06342  0.89399  0.99499  1.0000
  H   H7        1.0  0.94458  0.93510  0.01851  1.0000
  H   H8        1.0  0.89563  0.94056  0.98659  1.0000
  H   H9        1.0  0.93130  0.00864  0.05404  1.0000
  H   H10       1.0  0.85761  0.94549  0.06335  1.0000
  H   H11       1.0  0.90455  0.94590  0.09070  1.0000
  H   H12       1.0  0.87309  0.05547  0.03850  1.0000
  H   H13       1.0  0.83611  0.01317  0.02270  1.0000
  H   H14       1.0  0.85947  0.01030  0.95029  1.0000
  H   H15       1.0  0.86695  0.06717  0.96145  1.0000
  H   H16       1.0  0.92958  0.03195  0.91968  1.0000
  H   H17       1.0  0.94460  0.09871  0.96575  1.0000
  H   H18       1.0  0.99178  0.06355  0.96275  1.0000
  H   H19       1.0  0.95939  0.06474  0.01167  1.0000
  H   H20       1.0  0.11971  0.92743  0.95870  1.0000
  H   H21       1.0  0.08280  0.94026  0.91508  1.0000
  H   H22       1.0  0.07093  0.01438  0.94220  1.0000
  H   H23       1.0  0.15298  0.00641  0.92711  1.0000
  H   H24       1.0  0.14182  0.04622  0.96916  1.0000
  H   H25       1.0  0.16167  0.99284  0.98404  1.0000
