data_image0
_chemical_formula_structural       C2NC3NC4NC4ONC9OH24
_chemical_formula_sum              "C22 N4 O2 H24"
_cell_length_a       30
_cell_length_b       30
_cell_length_c       30
_cell_angle_alpha    90
_cell_angle_beta     90
_cell_angle_gamma    90

_space_group_name_H-M_alt    "P 1"
_space_group_IT_number       1

loop_
  _space_group_symop_operation_xyz
  'x, y, z'

loop_
  _atom_site_type_symbol
  _atom_site_label
  _atom_site_symmetry_multiplicity
  _atom_site_fract_x
  _atom_site_fract_y
  _atom_site_fract_z
  _atom_site_occupancy
  C   C1        1.0  0.23443  0.02527  0.95289  1.0000
  C   C2        1.0  0.21693  0.04284  0.99711  1.0000
  N   N1        1.0  0.17820  0.01779  0.01290  1.0000
  C   C3        1.0  0.18683  0.97575  0.03499  1.0000
  C   C4        1.0  0.14810  0.96336  0.06428  1.0000
  C   C5        1.0  0.10762  0.96131  0.03447  1.0000
  N   N2        1.0  0.09987  0.00289  0.00969  1.0000
  C   C6        1.0  0.05694  0.00965  0.99181  1.0000
  C   C7        1.0  0.04971  0.02672  0.95097  1.0000
  C   C8        1.0  0.00460  0.03273  0.93039  1.0000
  C   C9        1.0  0.96708  0.00942  0.95578  1.0000
  N   N3        1.0  0.93000  0.00354  0.93411  1.0000
  C   C10       1.0  0.89437  0.98368  0.95500  1.0000
  C   C11       1.0  0.89135  0.93419  0.94698  1.0000
  C   C12       1.0  0.86324  0.00701  0.97764  1.0000
  C   C13       1.0  0.86563  0.05703  0.98460  1.0000
  O   O1        1.0  0.89437  0.08341  0.97366  1.0000
  N   N4        1.0  0.82744  0.06766  0.00832  1.0000
  C   C14       1.0  0.80206  0.03011  0.01752  1.0000
  C   C15       1.0  0.76243  0.02929  0.04098  1.0000
  C   C16       1.0  0.74201  0.98799  0.04705  1.0000
  C   C17       1.0  0.76152  0.94909  0.02978  1.0000
  C   C18       1.0  0.80177  0.95082  0.00610  1.0000
  C   C19       1.0  0.82210  0.99181  0.99992  1.0000
  C   C20       1.0  0.97622  0.99683  0.00301  1.0000
  C   C21       1.0  0.01809  0.99793  0.01847  1.0000
  C   C22       1.0  0.13615  0.03027  0.99727  1.0000
  O   O2        1.0  0.13217  0.06468  0.97514  1.0000
  H   H1        1.0  0.20878  0.02688  0.92698  1.0000
  H   H2        1.0  0.24511  0.99050  0.95585  1.0000
  H   H3        1.0  0.26305  0.04503  0.94186  1.0000
  H   H4        1.0  0.20800  0.07806  0.99332  1.0000
  H   H5        1.0  0.24302  0.04135  0.02263  1.0000
  H   H6        1.0  0.19294  0.95041  0.00939  1.0000
  H   H7        1.0  0.21694  0.97887  0.05542  1.0000
  H   H8        1.0  0.15388  0.93114  0.08042  1.0000
  H   H9        1.0  0.14328  0.98839  0.09049  1.0000
  H   H10       1.0  0.11157  0.93475  0.00960  1.0000
  H   H11       1.0  0.07908  0.95241  0.05525  1.0000
  H   H12       1.0  0.07723  0.03610  0.92942  1.0000
  H   H13       1.0  0.99663  0.06829  0.92801  1.0000
  H   H14       1.0  0.00529  0.01907  0.89648  1.0000
  H   H15       1.0  0.89341  0.91583  0.97844  1.0000
  H   H16       1.0  0.91887  0.92247  0.92599  1.0000
  H   H17       1.0  0.86049  0.92562  0.92952  1.0000
  H   H18       1.0  0.82044  0.09915  0.01771  1.0000
  H   H19       1.0  0.74760  0.05945  0.05424  1.0000
  H   H20       1.0  0.71074  0.98581  0.06528  1.0000
  H   H21       1.0  0.74508  0.91715  0.03483  1.0000
  H   H22       1.0  0.81582  0.92016  0.99324  1.0000
  H   H23       1.0  0.94858  0.98836  0.02450  1.0000
  H   H24       1.0  0.02292  0.99167  0.05376  1.0000
