data_image0
_chemical_formula_structural       C2NC4ONC3ONCNC7FNH20
_chemical_formula_sum              "C17 N5 O2 F1 H20"
_cell_length_a       30
_cell_length_b       30
_cell_length_c       30
_cell_angle_alpha    90
_cell_angle_beta     90
_cell_angle_gamma    90

_space_group_name_H-M_alt    "P 1"
_space_group_IT_number       1

loop_
  _space_group_symop_operation_xyz
  'x, y, z'

loop_
  _atom_site_type_symbol
  _atom_site_label
  _atom_site_symmetry_multiplicity
  _atom_site_fract_x
  _atom_site_fract_y
  _atom_site_fract_z
  _atom_site_occupancy
  C   C1        1.0  0.25822  0.00712  0.95009  1.0000
  C   C2        1.0  0.24160  0.02728  0.99343  1.0000
  N   N1        1.0  0.20787  0.99982  0.01455  1.0000
  C   C3        1.0  0.21444  0.96985  0.04806  1.0000
  C   C4        1.0  0.17328  0.95196  0.05717  1.0000
  C   C5        1.0  0.14339  0.97332  0.02741  1.0000
  C   C6        1.0  0.09507  0.96585  0.02363  1.0000
  O   O1        1.0  0.07467  0.93923  0.04704  1.0000
  N   N2        1.0  0.07527  0.99185  0.99137  1.0000
  C   C7        1.0  0.02878  0.98809  0.97908  1.0000
  C   C8        1.0  0.99799  0.00841  0.01404  1.0000
  C   C9        1.0  0.94962  0.00699  0.99903  1.0000
  O   O2        1.0  0.93975  0.99329  0.96155  1.0000
  N   N3        1.0  0.91836  0.02240  0.03063  1.0000
  C   C10       1.0  0.93157  0.04931  0.06892  1.0000
  N   N4        1.0  0.87369  0.02669  0.01960  1.0000
  C   C11       1.0  0.85524  0.99378  0.99846  1.0000
  C   C12       1.0  0.80845  0.99589  0.98371  1.0000
  C   C13       1.0  0.78296  0.03450  0.98957  1.0000
  C   C14       1.0  0.73869  0.03542  0.97512  1.0000
  C   C15       1.0  0.71992  0.99794  0.95489  1.0000
  C   C16       1.0  0.74538  0.95945  0.94908  1.0000
  C   C17       1.0  0.78950  0.95862  0.96351  1.0000
  F   F1        1.0  0.81321  0.92116  0.95778  1.0000
  N   N5        1.0  0.16507  0.00295  0.00132  1.0000
  H   H1        1.0  0.23103  0.00332  0.92603  1.0000
  H   H2        1.0  0.28374  0.02848  0.93515  1.0000
  H   H3        1.0  0.27279  0.97412  0.95570  1.0000
  H   H4        1.0  0.26915  0.03123  0.01707  1.0000
  H   H5        1.0  0.22698  0.06025  0.98768  1.0000
  H   H6        1.0  0.24700  0.96372  0.06222  1.0000
  H   H7        1.0  0.16522  0.92685  0.08175  1.0000
  H   H8        1.0  0.09657  0.01117  0.97338  1.0000
  H   H9        1.0  0.02496  0.00498  0.94694  1.0000
  H   H10       1.0  0.02101  0.95272  0.97421  1.0000
  H   H11       1.0  0.00116  0.98997  0.04538  1.0000
  H   H12       1.0  0.00760  0.04316  0.01989  1.0000
  H   H13       1.0  0.95694  0.03187  0.08837  1.0000
  H   H14       1.0  0.94504  0.08103  0.05702  1.0000
  H   H15       1.0  0.90274  0.05544  0.09041  1.0000
  H   H16       1.0  0.87314  0.96237  0.99150  1.0000
  H   H17       1.0  0.79740  0.06385  0.00520  1.0000
  H   H18       1.0  0.71888  0.06545  0.97961  1.0000
  H   H19       1.0  0.68547  0.99876  0.94364  1.0000
  H   H20       1.0  0.73116  0.93009  0.93340  1.0000
