data_image0
_chemical_formula_structural       C2NCNC4NC5NCOC9H26
_chemical_formula_sum              "C22 N4 O1 H26"
_cell_length_a       30
_cell_length_b       30
_cell_length_c       30
_cell_angle_alpha    90
_cell_angle_beta     90
_cell_angle_gamma    90

_space_group_name_H-M_alt    "P 1"
_space_group_IT_number       1

loop_
  _space_group_symop_operation_xyz
  'x, y, z'

loop_
  _atom_site_type_symbol
  _atom_site_label
  _atom_site_symmetry_multiplicity
  _atom_site_fract_x
  _atom_site_fract_y
  _atom_site_fract_z
  _atom_site_occupancy
  C   C1        1.0  0.87403  0.06979  0.04563  1.0000
  C   C2        1.0  0.87171  0.05256  0.99807  1.0000
  N   N1        1.0  0.89325  0.00964  0.99305  1.0000
  C   C3        1.0  0.87222  0.96956  0.99913  1.0000
  N   N2        1.0  0.82937  0.96266  0.01081  1.0000
  C   C4        1.0  0.81939  0.91870  0.01395  1.0000
  C   C5        1.0  0.84873  0.88353  0.00640  1.0000
  C   C6        1.0  0.89276  0.89285  0.99445  1.0000
  C   C7        1.0  0.90470  0.93776  0.99076  1.0000
  N   N3        1.0  0.94438  0.95759  0.97994  1.0000
  C   C8        1.0  0.93703  0.00105  0.98138  1.0000
  C   C9        1.0  0.97117  0.03675  0.97177  1.0000
  C   C10       1.0  0.97034  0.05060  0.92265  1.0000
  C   C11       1.0  0.98884  0.01487  0.89131  1.0000
  C   C12       1.0  0.02479  0.98544  0.91209  1.0000
  N   N4        1.0  0.04720  0.00704  0.94931  1.0000
  C   C13       1.0  0.09292  0.99979  0.95421  1.0000
  O   O1        1.0  0.11679  0.98201  0.92612  1.0000
  C   C14       1.0  0.11441  0.01521  0.99580  1.0000
  C   C15       1.0  0.13192  0.05847  0.99567  1.0000
  C   C16       1.0  0.15205  0.07520  0.03389  1.0000
  C   C17       1.0  0.15460  0.04880  0.07207  1.0000
  C   C18       1.0  0.13738  0.00520  0.07259  1.0000
  C   C19       1.0  0.14155  0.97807  0.11460  1.0000
  C   C20       1.0  0.11771  0.98749  0.03361  1.0000
  C   C21       1.0  0.09954  0.94066  0.03314  1.0000
  C   C22       1.0  0.01869  0.02294  0.98588  1.0000
  H   H1        1.0  0.85750  0.04690  0.06876  1.0000
  H   H2        1.0  0.90861  0.07364  0.05665  1.0000
  H   H3        1.0  0.85760  0.10226  0.04812  1.0000
  H   H4        1.0  0.88737  0.07614  0.97508  1.0000
  H   H5        1.0  0.83692  0.04905  0.98751  1.0000
  H   H6        1.0  0.78502  0.91183  0.02329  1.0000
  H   H7        1.0  0.83750  0.84932  0.00977  1.0000
  H   H8        1.0  0.91686  0.86671  0.98823  1.0000
  H   H9        1.0  0.96242  0.06583  0.99216  1.0000
  H   H10       1.0  0.99079  0.08075  0.91897  1.0000
  H   H11       1.0  0.93666  0.05987  0.91190  1.0000
  H   H12       1.0  0.96176  0.99355  0.87913  1.0000
  H   H13       1.0  0.00239  0.03158  0.86172  1.0000
  H   H14       1.0  0.04863  0.97565  0.88622  1.0000
  H   H15       1.0  0.01039  0.95435  0.92473  1.0000
  H   H16       1.0  0.12989  0.07881  0.96575  1.0000
  H   H17       1.0  0.16585  0.10869  0.03401  1.0000
  H   H18       1.0  0.17049  0.06248  0.10170  1.0000
  H   H19       1.0  0.10945  0.96317  0.12352  1.0000
  H   H20       1.0  0.16642  0.95175  0.11015  1.0000
  H   H21       1.0  0.15195  0.99872  0.14285  1.0000
  H   H22       1.0  0.09446  0.92791  0.99937  1.0000
  H   H23       1.0  0.06758  0.93955  0.05070  1.0000
  H   H24       1.0  0.12283  0.91762  0.04922  1.0000
  H   H25       1.0  0.03508  0.05227  0.00024  1.0000
  H   H26       1.0  0.01815  0.99737  0.01197  1.0000
