data_image0
_chemical_formula_structural       C2NC5ONC4NC4H23
_chemical_formula_sum              "C15 N3 O1 H23"
_cell_length_a       30
_cell_length_b       30
_cell_length_c       30
_cell_angle_alpha    90
_cell_angle_beta     90
_cell_angle_gamma    90

_space_group_name_H-M_alt    "P 1"
_space_group_IT_number       1

loop_
  _space_group_symop_operation_xyz
  'x, y, z'

loop_
  _atom_site_type_symbol
  _atom_site_label
  _atom_site_symmetry_multiplicity
  _atom_site_fract_x
  _atom_site_fract_y
  _atom_site_fract_z
  _atom_site_occupancy
  C   C1        1.0  0.85723  0.04352  0.09470  1.0000
  C   C2        1.0  0.85468  0.02743  0.04652  1.0000
  N   N1        1.0  0.89837  0.01718  0.02687  1.0000
  C   C3        1.0  0.92824  0.05587  0.02514  1.0000
  C   C4        1.0  0.97212  0.04383  0.00215  1.0000
  C   C5        1.0  0.96549  0.02792  0.95380  1.0000
  C   C6        1.0  0.99541  0.98758  0.94342  1.0000
  C   C7        1.0  0.04478  0.99893  0.94276  1.0000
  O   O1        1.0  0.05931  0.03710  0.94197  1.0000
  N   N2        1.0  0.07156  0.96159  0.94176  1.0000
  C   C8        1.0  0.11956  0.96484  0.94421  1.0000
  C   C9        1.0  0.13551  0.95910  0.99141  1.0000
  C   C10       1.0  0.15108  0.91796  0.00675  1.0000
  C   C11       1.0  0.16453  0.91441  0.05083  1.0000
  N   N3        1.0  0.16338  0.94847  0.08021  1.0000
  C   C12       1.0  0.14816  0.98795  0.06479  1.0000
  C   C13       1.0  0.13399  0.99480  0.02138  1.0000
  C   C14       1.0  0.91628  0.01726  0.94457  1.0000
  C   C15       1.0  0.89368  0.99398  0.98389  1.0000
  H   H1        1.0  0.82368  0.04543  0.10897  1.0000
  H   H2        1.0  0.87679  0.02053  0.11523  1.0000
  H   H3        1.0  0.87205  0.07678  0.09716  1.0000
  H   H4        1.0  0.83441  0.99697  0.04672  1.0000
  H   H5        1.0  0.83679  0.05211  0.02633  1.0000
  H   H6        1.0  0.91252  0.08416  0.00804  1.0000
  H   H7        1.0  0.93640  0.06690  0.05901  1.0000
  H   H8        1.0  0.99425  0.07296  0.00238  1.0000
  H   H9        1.0  0.98908  0.01822  0.02206  1.0000
  H   H10       1.0  0.97493  0.05520  0.93128  1.0000
  H   H11       1.0  0.98731  0.97441  0.91028  1.0000
  H   H12       1.0  0.98959  0.96085  0.96767  1.0000
  H   H13       1.0  0.05767  0.93164  0.94849  1.0000
  H   H14       1.0  0.13109  0.99675  0.93070  1.0000
  H   H15       1.0  0.13318  0.93852  0.92291  1.0000
  H   H16       1.0  0.15292  0.88913  0.98501  1.0000
  H   H17       1.0  0.17682  0.88304  0.06414  1.0000
  H   H18       1.0  0.14748  0.01483  0.08905  1.0000
  H   H19       1.0  0.12171  0.02732  0.01119  1.0000
  H   H20       1.0  0.91289  0.99682  0.91444  1.0000
  H   H21       1.0  0.89843  0.04846  0.93749  1.0000
  H   H22       1.0  0.90809  0.96062  0.98780  1.0000
  H   H23       1.0  0.85857  0.98862  0.97513  1.0000
