data_image0
_chemical_formula_structural       C2NC4OC9NC4OH32
_chemical_formula_sum              "C19 N2 O2 H32"
_cell_length_a       30
_cell_length_b       30
_cell_length_c       30
_cell_angle_alpha    90
_cell_angle_beta     90
_cell_angle_gamma    90

_space_group_name_H-M_alt    "P 1"
_space_group_IT_number       1

loop_
  _space_group_symop_operation_xyz
  'x, y, z'

loop_
  _atom_site_type_symbol
  _atom_site_label
  _atom_site_symmetry_multiplicity
  _atom_site_fract_x
  _atom_site_fract_y
  _atom_site_fract_z
  _atom_site_occupancy
  C   C1        1.0  0.90941  0.09223  0.99027  1.0000
  C   C2        1.0  0.88313  0.04889  0.99221  1.0000
  N   N1        1.0  0.91120  0.00930  0.98647  1.0000
  C   C3        1.0  0.91532  0.97897  0.02492  1.0000
  C   C4        1.0  0.94545  0.99547  0.06322  1.0000
  C   C5        1.0  0.99324  0.97578  0.06739  1.0000
  C   C6        1.0  0.03332  0.00708  0.05732  1.0000
  O   O1        1.0  0.06851  0.00162  0.07828  1.0000
  C   C7        1.0  0.02939  0.04625  0.02487  1.0000
  C   C8        1.0  0.06515  0.05152  0.98727  1.0000
  C   C9        1.0  0.11177  0.03485  0.00053  1.0000
  C   C10       1.0  0.07051  0.10292  0.98060  1.0000
  C   C11       1.0  0.05119  0.03382  0.94023  1.0000
  C   C12       1.0  0.03892  0.98482  0.93213  1.0000
  C   C13       1.0  0.06730  0.94404  0.94560  1.0000
  C   C14       1.0  0.02762  0.92506  0.97256  1.0000
  C   C15       1.0  0.03640  0.91799  0.02261  1.0000
  N   N2        1.0  0.99702  0.92893  0.05006  1.0000
  C   C16       1.0  0.99266  0.89690  0.08678  1.0000
  C   C17       1.0  0.99965  0.96583  0.95875  1.0000
  C   C18       1.0  0.95472  0.95864  0.93641  1.0000
  C   C19       1.0  0.92447  0.99883  0.94294  1.0000
  O   O2        1.0  0.91387  0.02180  0.91057  1.0000
  H   H1        1.0  0.88677  0.12074  0.99272  1.0000
  H   H2        1.0  0.92821  0.09531  0.95917  1.0000
  H   H3        1.0  0.93312  0.09446  0.01787  1.0000
  H   H4        1.0  0.85768  0.04894  0.96598  1.0000
  H   H5        1.0  0.86554  0.04684  0.02415  1.0000
  H   H6        1.0  0.88132  0.97526  0.03800  1.0000
  H   H7        1.0  0.92428  0.94544  0.01427  1.0000
  H   H8        1.0  0.94633  0.03191  0.06446  1.0000
  H   H9        1.0  0.92802  0.98535  0.09387  1.0000
  H   H10       1.0  0.99735  0.97363  0.10392  1.0000
  H   H11       1.0  0.03089  0.07537  0.04712  1.0000
  H   H12       1.0  0.99614  0.04833  0.01038  1.0000
  H   H13       1.0  0.11230  0.99949  0.00873  1.0000
  H   H14       1.0  0.13584  0.04010  0.97355  1.0000
  H   H15       1.0  0.12432  0.05283  0.02977  1.0000
  H   H16       1.0  0.03867  0.11842  0.97156  1.0000
  H   H17       1.0  0.09452  0.11051  0.95411  1.0000
  H   H18       1.0  0.08246  0.11917  0.01108  1.0000
  H   H19       1.0  0.07813  0.04197  0.91676  1.0000
  H   H20       1.0  0.02250  0.05369  0.92897  1.0000
  H   H21       1.0  0.03215  0.98261  0.89605  1.0000
  H   H22       1.0  0.07672  0.92300  0.91720  1.0000
  H   H23       1.0  0.09770  0.95063  0.96429  1.0000
  H   H24       1.0  0.01467  0.89413  0.95775  1.0000
  H   H25       1.0  0.04475  0.88250  0.02628  1.0000
  H   H26       1.0  0.06649  0.93510  0.03387  1.0000
  H   H27       1.0  0.98987  0.86282  0.07392  1.0000
  H   H28       1.0  0.02114  0.89841  0.10960  1.0000
  H   H29       1.0  0.96209  0.90309  0.10580  1.0000
  H   H30       1.0  0.99323  0.98663  0.98708  1.0000
  H   H31       1.0  0.93775  0.92898  0.94918  1.0000
  H   H32       1.0  0.95886  0.95279  0.90058  1.0000
