data_image0
_chemical_formula_structural       C2NC4SO2NC4FC6FCFCH19
_chemical_formula_sum              "C18 N2 S1 O2 F3 H19"
_cell_length_a       30
_cell_length_b       30
_cell_length_c       30
_cell_angle_alpha    90
_cell_angle_beta     90
_cell_angle_gamma    90

_space_group_name_H-M_alt    "P 1"
_space_group_IT_number       1

loop_
  _space_group_symop_operation_xyz
  'x, y, z'

loop_
  _atom_site_type_symbol
  _atom_site_label
  _atom_site_symmetry_multiplicity
  _atom_site_fract_x
  _atom_site_fract_y
  _atom_site_fract_z
  _atom_site_occupancy
  C   C1        1.0  0.84948  0.89619  0.00614  1.0000
  C   C2        1.0  0.89705  0.90343  0.02238  1.0000
  N   N1        1.0  0.90725  0.95044  0.03058  1.0000
  C   C3        1.0  0.91779  0.97586  0.99000  1.0000
  C   C4        1.0  0.96702  0.97116  0.97930  1.0000
  C   C5        1.0  0.99321  0.00124  0.95871  1.0000
  C   C6        1.0  0.04232  0.99486  0.95076  1.0000
  S   S1        1.0  0.07221  0.04200  0.97334  1.0000
  O   O1        1.0  0.06968  0.04187  0.02149  1.0000
  O   O2        1.0  0.06026  0.08123  0.94778  1.0000
  N   N2        1.0  0.12521  0.03014  0.95701  1.0000
  C   C7        1.0  0.15411  0.01160  0.98986  1.0000
  C   C8        1.0  0.15459  0.96556  0.99675  1.0000
  C   C9        1.0  0.18172  0.94750  0.02995  1.0000
  C   C10       1.0  0.20767  0.97565  0.05611  1.0000
  F   F1        1.0  0.23369  0.95824  0.08795  1.0000
  C   C11       1.0  0.20697  0.02159  0.04977  1.0000
  C   C12       1.0  0.17991  0.03974  0.01656  1.0000
  C   C13       1.0  0.90275  0.02416  0.99621  1.0000
  C   C14       1.0  0.92057  0.05099  0.03048  1.0000
  C   C15       1.0  0.90659  0.09507  0.03600  1.0000
  C   C16       1.0  0.87458  0.11258  0.00745  1.0000
  F   F2        1.0  0.86110  0.15483  0.01284  1.0000
  C   C17       1.0  0.85659  0.08651  0.97366  1.0000
  F   F3        1.0  0.82564  0.10344  0.94623  1.0000
  C   C18       1.0  0.87036  0.04255  0.96783  1.0000
  H   H1        1.0  0.84273  0.86046  0.00289  1.0000
  H   H2        1.0  0.84374  0.91156  0.97356  1.0000
  H   H3        1.0  0.82529  0.90998  0.02975  1.0000
  H   H4        1.0  0.92083  0.88831  0.99915  1.0000
  H   H5        1.0  0.90103  0.88566  0.05405  1.0000
  H   H6        1.0  0.88067  0.96487  0.04610  1.0000
  H   H7        1.0  0.89930  0.96196  0.96166  1.0000
  H   H8        1.0  0.98215  0.94002  0.99020  1.0000
  H   H9        1.0  0.97922  0.03266  0.94703  1.0000
  H   H10       1.0  0.05502  0.96483  0.96700  1.0000
  H   H11       1.0  0.04913  0.99365  0.91497  1.0000
  H   H12       1.0  0.13756  0.05751  0.94086  1.0000
  H   H13       1.0  0.13445  0.94356  0.97627  1.0000
  H   H14       1.0  0.18273  0.91178  0.03567  1.0000
  H   H15       1.0  0.22717  0.04290  0.07092  1.0000
  H   H16       1.0  0.17875  0.07567  0.01221  1.0000
  H   H17       1.0  0.94578  0.03738  0.05286  1.0000
  H   H18       1.0  0.92056  0.11569  0.06225  1.0000
  H   H19       1.0  0.85560  0.02313  0.94107  1.0000
