data_image0
_chemical_formula_structural       C2NC2NCOC2NC2NCOC14SH32
_chemical_formula_sum              "C24 N4 O2 S1 H32"
_cell_length_a       30
_cell_length_b       30
_cell_length_c       30
_cell_angle_alpha    90
_cell_angle_beta     90
_cell_angle_gamma    90

_space_group_name_H-M_alt    "P 1"
_space_group_IT_number       1

loop_
  _space_group_symop_operation_xyz
  'x, y, z'

loop_
  _atom_site_type_symbol
  _atom_site_label
  _atom_site_symmetry_multiplicity
  _atom_site_fract_x
  _atom_site_fract_y
  _atom_site_fract_z
  _atom_site_occupancy
  C   C1        1.0  0.82072  0.11440  0.03527  1.0000
  C   C2        1.0  0.82876  0.06503  0.04328  1.0000
  N   N1        1.0  0.78909  0.03958  0.03007  1.0000
  C   C3        1.0  0.78673  0.99614  0.04433  1.0000
  C   C4        1.0  0.81356  0.96021  0.03238  1.0000
  N   N2        1.0  0.84620  0.96697  0.99991  1.0000
  C   C5        1.0  0.88560  0.94385  0.99480  1.0000
  O   O1        1.0  0.89844  0.91230  0.01732  1.0000
  C   C6        1.0  0.91371  0.96259  0.95706  1.0000
  C   C7        1.0  0.96257  0.94887  0.96289  1.0000
  N   N3        1.0  0.99270  0.96586  0.92791  1.0000
  C   C8        1.0  0.99280  0.01521  0.92544  1.0000
  C   C9        1.0  0.03791  0.03586  0.91237  1.0000
  N   N4        1.0  0.07273  0.02305  0.94398  1.0000
  C   C10       1.0  0.10938  0.05075  0.94920  1.0000
  O   O2        1.0  0.11622  0.08381  0.92612  1.0000
  C   C11       1.0  0.14156  0.04048  0.98513  1.0000
  C   C12       1.0  0.12708  0.03926  0.02975  1.0000
  C   C13       1.0  0.15736  0.03075  0.06408  1.0000
  C   C14       1.0  0.20164  0.02418  0.05293  1.0000
  C   C15       1.0  0.23986  0.01400  0.08344  1.0000
  C   C16       1.0  0.27973  0.02657  0.05395  1.0000
  C   C17       1.0  0.26531  0.01793  0.00561  1.0000
  C   C18       1.0  0.21617  0.02629  0.00860  1.0000
  C   C19       1.0  0.18647  0.03436  0.97419  1.0000
  C   C20       1.0  0.06956  0.97771  0.96205  1.0000
  C   C21       1.0  0.03835  0.94794  0.93409  1.0000
  C   C22       1.0  0.80101  0.92000  0.05561  1.0000
  C   C23       1.0  0.82014  0.87438  0.04989  1.0000
  C   C24       1.0  0.76556  0.92797  0.08405  1.0000
  S   S1        1.0  0.74651  0.98135  0.08186  1.0000
  H   H1        1.0  0.79449  0.12697  0.05736  1.0000
  H   H2        1.0  0.85120  0.13342  0.04156  1.0000
  H   H3        1.0  0.80995  0.12099  0.00092  1.0000
  H   H4        1.0  0.85770  0.05460  0.02357  1.0000
  H   H5        1.0  0.83634  0.05973  0.07866  1.0000
  H   H6        1.0  0.76130  0.05672  0.03977  1.0000
  H   H7        1.0  0.84285  0.99663  0.98412  1.0000
  H   H8        1.0  0.91051  0.99895  0.95684  1.0000
  H   H9        1.0  0.90049  0.94967  0.92560  1.0000
  H   H10       1.0  0.97429  0.95942  0.99596  1.0000
  H   H11       1.0  0.96407  0.91228  0.96254  1.0000
  H   H12       1.0  0.96742  0.02572  0.90131  1.0000
  H   H13       1.0  0.98358  0.02953  0.95789  1.0000
  H   H14       1.0  0.04823  0.02482  0.87910  1.0000
  H   H15       1.0  0.03498  0.07223  0.91156  1.0000
  H   H16       1.0  0.09222  0.04540  0.03758  1.0000
  H   H17       1.0  0.14635  0.02961  0.09855  1.0000
  H   H18       1.0  0.24020  0.97842  0.09159  1.0000
  H   H19       1.0  0.23900  0.03391  0.11405  1.0000
  H   H20       1.0  0.31011  0.00840  0.06298  1.0000
  H   H21       1.0  0.28695  0.06224  0.05815  1.0000
  H   H22       1.0  0.27153  0.98329  0.99594  1.0000
  H   H23       1.0  0.28191  0.04076  0.98251  1.0000
  H   H24       1.0  0.19755  0.03619  0.93984  1.0000
  H   H25       1.0  0.05696  0.98032  0.99620  1.0000
  H   H26       1.0  0.10284  0.96278  0.96328  1.0000
  H   H27       1.0  0.05300  0.94413  0.90076  1.0000
  H   H28       1.0  0.03757  0.91417  0.94810  1.0000
  H   H29       1.0  0.85125  0.87101  0.06854  1.0000
  H   H30       1.0  0.79718  0.84896  0.06261  1.0000
  H   H31       1.0  0.82556  0.86692  0.01469  1.0000
  H   H32       1.0  0.74897  0.90417  0.10550  1.0000
