data_image0
_chemical_formula_structural       C2NCOC4ONOC2H10
_chemical_formula_sum              "C9 N2 O3 H10"
_cell_length_a       30
_cell_length_b       30
_cell_length_c       30
_cell_angle_alpha    90
_cell_angle_beta     90
_cell_angle_gamma    90

_space_group_name_H-M_alt    "P 1"
_space_group_IT_number       1

loop_
  _space_group_symop_operation_xyz
  'x, y, z'

loop_
  _atom_site_type_symbol
  _atom_site_label
  _atom_site_symmetry_multiplicity
  _atom_site_fract_x
  _atom_site_fract_y
  _atom_site_fract_z
  _atom_site_occupancy
  C   C1        1.0  0.12840  0.02525  0.97899  1.0000
  C   C2        1.0  0.11196  0.99970  0.01947  1.0000
  N   N1        1.0  0.06555  0.98712  0.01506  1.0000
  C   C3        1.0  0.03176  0.01668  0.02505  1.0000
  O   O1        1.0  0.03806  0.05431  0.03962  1.0000
  C   C4        1.0  0.98555  0.00110  0.01600  1.0000
  C   C5        1.0  0.97376  0.95559  0.01915  1.0000
  C   C6        1.0  0.92997  0.94186  0.01073  1.0000
  C   C7        1.0  0.89919  0.97414  0.99953  1.0000
  O   O2        1.0  0.85528  0.96727  0.99058  1.0000
  N   N2        1.0  0.83867  0.01205  0.97901  1.0000
  O   O3        1.0  0.87501  0.04444  0.98588  1.0000
  C   C8        1.0  0.91052  0.01850  0.99688  1.0000
  C   C9        1.0  0.95331  0.03315  0.00512  1.0000
  H   H1        1.0  0.12444  0.00542  0.94860  1.0000
  H   H2        1.0  0.10976  0.05630  0.97447  1.0000
  H   H3        1.0  0.16372  0.03358  0.98270  1.0000
  H   H4        1.0  0.13113  0.96893  0.02354  1.0000
  H   H5        1.0  0.11615  0.01990  0.04959  1.0000
  H   H6        1.0  0.05854  0.95978  0.99666  1.0000
  H   H7        1.0  0.99821  0.93078  0.02912  1.0000
  H   H8        1.0  0.92041  0.90708  0.01318  1.0000
  H   H9        1.0  0.81900  0.01878  0.00598  1.0000
  H   H10       1.0  0.96166  0.06830  0.00312  1.0000
