data_image0
_chemical_formula_structural       C2NCN2CSC3NH10
_chemical_formula_sum              "C7 N4 S1 H10"
_cell_length_a       30
_cell_length_b       30
_cell_length_c       30
_cell_angle_alpha    90
_cell_angle_beta     90
_cell_angle_gamma    90

_space_group_name_H-M_alt    "P 1"
_space_group_IT_number       1

loop_
  _space_group_symop_operation_xyz
  'x, y, z'

loop_
  _atom_site_type_symbol
  _atom_site_label
  _atom_site_symmetry_multiplicity
  _atom_site_fract_x
  _atom_site_fract_y
  _atom_site_fract_z
  _atom_site_occupancy
  C   C1        1.0  0.90117  0.98553  0.96276  1.0000
  C   C2        1.0  0.93004  0.02509  0.97592  1.0000
  N   N1        1.0  0.93992  0.02483  0.02365  1.0000
  C   C3        1.0  0.96979  0.99466  0.03960  1.0000
  N   N2        1.0  0.96253  0.96335  0.06984  1.0000
  N   N3        1.0  0.00191  0.93968  0.07671  1.0000
  C   C4        1.0  0.03147  0.95862  0.05119  1.0000
  S   S1        1.0  0.08770  0.95178  0.04021  1.0000
  C   C5        1.0  0.08503  0.99881  0.00385  1.0000
  C   C6        1.0  0.12575  0.01476  0.98044  1.0000
  C   C7        1.0  0.04375  0.01636  0.00153  1.0000
  N   N4        1.0  0.01403  0.99331  0.02789  1.0000
  H   H1        1.0  0.89247  0.98747  0.92738  1.0000
  H   H2        1.0  0.91855  0.95394  0.96838  1.0000
  H   H3        1.0  0.87021  0.98488  0.98208  1.0000
  H   H4        1.0  0.96047  0.02564  0.95579  1.0000
  H   H5        1.0  0.91198  0.05592  0.96837  1.0000
  H   H6        1.0  0.91089  0.02350  0.04140  1.0000
  H   H7        1.0  0.11856  0.04394  0.95972  1.0000
  H   H8        1.0  0.15155  0.02424  0.00444  1.0000
  H   H9        1.0  0.13914  0.98870  0.95869  1.0000
  H   H10       1.0  0.03308  0.04500  0.98262  1.0000
