data_image0
_chemical_formula_structural       C2NC5O2C10N2H21
_chemical_formula_sum              "C17 N3 O2 H21"
_cell_length_a       30
_cell_length_b       30
_cell_length_c       30
_cell_angle_alpha    90
_cell_angle_beta     90
_cell_angle_gamma    90

_space_group_name_H-M_alt    "P 1"
_space_group_IT_number       1

loop_
  _space_group_symop_operation_xyz
  'x, y, z'

loop_
  _atom_site_type_symbol
  _atom_site_label
  _atom_site_symmetry_multiplicity
  _atom_site_fract_x
  _atom_site_fract_y
  _atom_site_fract_z
  _atom_site_occupancy
  C   C1        1.0  0.24556  0.99530  0.95232  1.0000
  C   C2        1.0  0.24896  0.97188  0.99717  1.0000
  N   N1        1.0  0.21318  0.93950  0.00346  1.0000
  C   C3        1.0  0.17022  0.95599  0.00962  1.0000
  C   C4        1.0  0.15991  0.98711  0.04224  1.0000
  C   C5        1.0  0.11605  0.00172  0.04696  1.0000
  C   C6        1.0  0.08392  0.98430  0.01877  1.0000
  C   C7        1.0  0.03688  0.99905  0.02271  1.0000
  O   O1        1.0  0.02460  0.02679  0.04998  1.0000
  O   O2        1.0  0.01119  0.97694  0.99151  1.0000
  C   C8        1.0  0.96627  0.98888  0.99282  1.0000
  C   C9        1.0  0.95002  0.01805  0.96078  1.0000
  C   C10       1.0  0.90475  0.02896  0.96085  1.0000
  C   C11       1.0  0.87505  0.01067  0.99243  1.0000
  C   C12       1.0  0.82540  0.02363  0.99146  1.0000
  C   C13       1.0  0.80492  0.01019  0.94620  1.0000
  C   C14       1.0  0.79724  0.00106  0.02822  1.0000
  C   C15       1.0  0.82066  0.07449  0.99776  1.0000
  C   C16       1.0  0.89272  0.98070  0.02391  1.0000
  C   C17       1.0  0.93800  0.96960  0.02405  1.0000
  N   N2        1.0  0.09429  0.95378  0.98740  1.0000
  N   N3        1.0  0.13775  0.93950  0.98322  1.0000
  H   H1        1.0  0.27418  0.01739  0.94744  1.0000
  H   H2        1.0  0.24501  0.97117  0.92493  1.0000
  H   H3        1.0  0.21526  0.01551  0.95004  1.0000
  H   H4        1.0  0.28063  0.95369  0.99838  1.0000
  H   H5        1.0  0.25018  0.99627  0.02431  1.0000
  H   H6        1.0  0.21119  0.91743  0.97767  1.0000
  H   H7        1.0  0.18541  0.99961  0.06460  1.0000
  H   H8        1.0  0.10736  0.02598  0.07236  1.0000
  H   H9        1.0  0.97216  0.03229  0.93596  1.0000
  H   H10       1.0  0.89283  0.05211  0.93561  1.0000
  H   H11       1.0  0.76924  0.01801  0.94505  1.0000
  H   H12       1.0  0.82057  0.02765  0.91821  1.0000
  H   H13       1.0  0.80864  0.97433  0.94021  1.0000
  H   H14       1.0  0.76223  0.01139  0.02619  1.0000
  H   H15       1.0  0.79787  0.96465  0.02521  1.0000
  H   H16       1.0  0.80913  0.00994  0.06162  1.0000
  H   H17       1.0  0.78551  0.08447  0.99839  1.0000
  H   H18       1.0  0.83660  0.09331  0.97084  1.0000
  H   H19       1.0  0.83585  0.08531  0.02920  1.0000
  H   H20       1.0  0.87179  0.96519  0.04906  1.0000
  H   H21       1.0  0.95084  0.94621  0.04849  1.0000
