data_image0
_chemical_formula_structural       C2NC18H25
_chemical_formula_sum              "C20 N1 H25"
_cell_length_a       30
_cell_length_b       30
_cell_length_c       30
_cell_angle_alpha    90
_cell_angle_beta     90
_cell_angle_gamma    90

_space_group_name_H-M_alt    "P 1"
_space_group_IT_number       1

loop_
  _space_group_symop_operation_xyz
  'x, y, z'

loop_
  _atom_site_type_symbol
  _atom_site_label
  _atom_site_symmetry_multiplicity
  _atom_site_fract_x
  _atom_site_fract_y
  _atom_site_fract_z
  _atom_site_occupancy
  C   C1        1.0  0.92932  0.13786  0.03650  1.0000
  C   C2        1.0  0.90991  0.10846  0.99999  1.0000
  N   N1        1.0  0.94022  0.10050  0.96262  1.0000
  C   C3        1.0  0.98106  0.07582  0.97384  1.0000
  C   C4        1.0  0.97450  0.02770  0.99165  1.0000
  C   C5        1.0  0.94992  0.99790  0.95749  1.0000
  C   C6        1.0  0.93225  0.95515  0.97769  1.0000
  C   C7        1.0  0.95757  0.91594  0.97654  1.0000
  C   C8        1.0  0.94134  0.87682  0.99580  1.0000
  C   C9        1.0  0.89969  0.87653  0.01637  1.0000
  C   C10       1.0  0.87426  0.91538  0.01779  1.0000
  C   C11       1.0  0.89047  0.95454  0.99861  1.0000
  C   C12       1.0  0.01938  0.00789  0.00554  1.0000
  C   C13       1.0  0.02547  0.99348  0.04997  1.0000
  C   C14       1.0  0.06572  0.97472  0.06409  1.0000
  C   C15       1.0  0.09997  0.97084  0.03351  1.0000
  C   C16       1.0  0.14513  0.95080  0.04030  1.0000
  C   C17       1.0  0.17023  0.96887  0.99952  1.0000
  C   C18       1.0  0.13542  0.97538  0.96257  1.0000
  C   C19       1.0  0.09444  0.98480  0.98943  1.0000
  C   C20       1.0  0.05455  0.00303  0.97495  1.0000
  H   H1        1.0  0.90352  0.14585  0.06106  1.0000
  H   H2        1.0  0.94186  0.16931  0.02287  1.0000
  H   H3        1.0  0.95653  0.12122  0.05419  1.0000
  H   H4        1.0  0.88030  0.12513  0.98652  1.0000
  H   H5        1.0  0.89785  0.07704  0.01409  1.0000
  H   H6        1.0  0.94914  0.13046  0.94918  1.0000
  H   H7        1.0  0.00087  0.07445  0.94312  1.0000
  H   H8        1.0  0.00113  0.09527  0.99743  1.0000
  H   H9        1.0  0.95392  0.02993  0.02183  1.0000
  H   H10       1.0  0.97142  0.98991  0.92898  1.0000
  H   H11       1.0  0.92138  0.01578  0.94323  1.0000
  H   H12       1.0  0.99030  0.91575  0.96094  1.0000
  H   H13       1.0  0.96132  0.84663  0.99484  1.0000
  H   H14       1.0  0.88711  0.84606  0.03135  1.0000
  H   H15       1.0  0.84180  0.91520  0.03385  1.0000
  H   H16       1.0  0.87033  0.98465  0.99999  1.0000
  H   H17       1.0  0.99830  0.99631  0.07385  1.0000
  H   H18       1.0  0.06968  0.96333  0.09819  1.0000
  H   H19       1.0  0.14298  0.91438  0.03939  1.0000
  H   H20       1.0  0.16072  0.96166  0.07141  1.0000
  H   H21       1.0  0.18495  0.00135  0.00795  1.0000
  H   H22       1.0  0.19760  0.94706  0.98920  1.0000
  H   H23       1.0  0.13093  0.94482  0.94313  1.0000
  H   H24       1.0  0.14437  0.00303  0.94057  1.0000
  H   H25       1.0  0.05086  0.01299  0.94035  1.0000
