data_image0
_chemical_formula_structural       C2NC2OC10SH17
_chemical_formula_sum              "C14 N1 O1 S1 H17"
_cell_length_a       30
_cell_length_b       30
_cell_length_c       30
_cell_angle_alpha    90
_cell_angle_beta     90
_cell_angle_gamma    90

_space_group_name_H-M_alt    "P 1"
_space_group_IT_number       1

loop_
  _space_group_symop_operation_xyz
  'x, y, z'

loop_
  _atom_site_type_symbol
  _atom_site_label
  _atom_site_symmetry_multiplicity
  _atom_site_fract_x
  _atom_site_fract_y
  _atom_site_fract_z
  _atom_site_occupancy
  C   C1        1.0  0.87077  0.05012  0.04265  1.0000
  C   C2        1.0  0.89428  0.03410  0.00067  1.0000
  N   N1        1.0  0.90677  0.98726  0.00589  1.0000
  C   C3        1.0  0.92827  0.96928  0.96522  1.0000
  C   C4        1.0  0.92705  0.91771  0.96730  1.0000
  O   O1        1.0  0.88190  0.90237  0.97003  1.0000
  C   C5        1.0  0.97576  0.98517  0.96063  1.0000
  C   C6        1.0  0.00815  0.98929  0.99320  1.0000
  C   C7        1.0  0.04988  0.00515  0.97633  1.0000
  C   C8        1.0  0.09045  0.01376  0.00178  1.0000
  C   C9        1.0  0.13235  0.00114  0.98539  1.0000
  C   C10       1.0  0.17089  0.00938  0.01021  1.0000
  C   C11       1.0  0.16790  0.03023  0.05161  1.0000
  C   C12       1.0  0.12641  0.04280  0.06829  1.0000
  C   C13       1.0  0.08784  0.03455  0.04353  1.0000
  C   C14       1.0  0.04727  0.01290  0.93102  1.0000
  S   S1        1.0  0.99592  0.00070  0.90951  1.0000
  H   H1        1.0  0.89243  0.04708  0.07188  1.0000
  H   H2        1.0  0.86144  0.08523  0.03919  1.0000
  H   H3        1.0  0.84032  0.03098  0.04891  1.0000
  H   H4        1.0  0.87184  0.03837  0.97215  1.0000
  H   H5        1.0  0.92376  0.05492  0.99515  1.0000
  H   H6        1.0  0.87852  0.96868  0.01063  1.0000
  H   H7        1.0  0.90818  0.97931  0.93630  1.0000
  H   H8        1.0  0.94517  0.90512  0.99645  1.0000
  H   H9        1.0  0.94207  0.90322  0.93732  1.0000
  H   H10       1.0  0.88333  0.87008  0.97269  1.0000
  H   H11       1.0  0.00184  0.98116  0.02785  1.0000
  H   H12       1.0  0.13540  0.98437  0.95340  1.0000
  H   H13       1.0  0.20321  0.99940  0.99724  1.0000
  H   H14       1.0  0.19789  0.03663  0.07090  1.0000
  H   H15       1.0  0.12401  0.05908  0.10057  1.0000
  H   H16       1.0  0.05579  0.04487  0.05699  1.0000
  H   H17       1.0  0.07295  0.02557  0.90911  1.0000
