data_image0
_chemical_formula_structural       C2NCONCOCSC2OC6NCH23
_chemical_formula_sum              "C14 N3 O3 S1 H23"
_cell_length_a       30
_cell_length_b       30
_cell_length_c       30
_cell_angle_alpha    90
_cell_angle_beta     90
_cell_angle_gamma    90

_space_group_name_H-M_alt    "P 1"
_space_group_IT_number       1

loop_
  _space_group_symop_operation_xyz
  'x, y, z'

loop_
  _atom_site_type_symbol
  _atom_site_label
  _atom_site_symmetry_multiplicity
  _atom_site_fract_x
  _atom_site_fract_y
  _atom_site_fract_z
  _atom_site_occupancy
  C   C1        1.0  0.21452  0.04524  0.94061  1.0000
  C   C2        1.0  0.17542  0.07470  0.95334  1.0000
  N   N1        1.0  0.13385  0.05031  0.94943  1.0000
  C   C3        1.0  0.09547  0.06753  0.96803  1.0000
  O   O1        1.0  0.09470  0.10117  0.99101  1.0000
  N   N2        1.0  0.05982  0.04045  0.95872  1.0000
  C   C4        1.0  0.01790  0.05023  0.97608  1.0000
  O   O2        1.0  0.99844  0.08559  0.96881  1.0000
  C   C5        1.0  0.99520  0.00865  0.99772  1.0000
  S   S1        1.0  0.95028  0.02565  0.03491  1.0000
  C   C6        1.0  0.91001  0.98432  0.02284  1.0000
  C   C7        1.0  0.87284  0.99841  0.99068  1.0000
  O   O3        1.0  0.85612  0.04139  0.00308  1.0000
  C   C8        1.0  0.83208  0.96741  0.98526  1.0000
  C   C9        1.0  0.80113  0.96585  0.02595  1.0000
  C   C10       1.0  0.91239  0.94363  0.04199  1.0000
  C   C11       1.0  0.94526  0.92719  0.07321  1.0000
  C   C12       1.0  0.98921  0.92308  0.06565  1.0000
  C   C13       1.0  0.01366  0.93281  0.02313  1.0000
  N   N3        1.0  0.02987  0.97861  0.01703  1.0000
  C   C14       1.0  0.05227  0.99622  0.05679  1.0000
  H   H1        1.0  0.21517  0.01496  0.96110  1.0000
  H   H2        1.0  0.21203  0.03515  0.90572  1.0000
  H   H3        1.0  0.24605  0.06301  0.94502  1.0000
  H   H4        1.0  0.17374  0.10369  0.93105  1.0000
  H   H5        1.0  0.17926  0.08649  0.98752  1.0000
  H   H6        1.0  0.12859  0.03472  0.92010  1.0000
  H   H7        1.0  0.06841  0.00821  0.96392  1.0000
  H   H8        1.0  0.98019  0.99184  0.96884  1.0000
  H   H9        1.0  0.88815  0.00209  0.95745  1.0000
  H   H10       1.0  0.88225  0.06105  0.00813  1.0000
  H   H11       1.0  0.84287  0.93376  0.97630  1.0000
  H   H12       1.0  0.81207  0.97933  0.95712  1.0000
  H   H13       1.0  0.78499  0.99816  0.03131  1.0000
  H   H14       1.0  0.77460  0.94090  0.02087  1.0000
  H   H15       1.0  0.81916  0.95713  0.05678  1.0000
  H   H16       1.0  0.88649  0.91918  0.03559  1.0000
  H   H17       1.0  0.93168  0.91647  0.10506  1.0000
  H   H18       1.0  0.00966  0.91012  0.09262  1.0000
  H   H19       1.0  0.04292  0.91062  0.02241  1.0000
  H   H20       1.0  0.99390  0.92209  0.99416  1.0000
  H   H21       1.0  0.06770  0.02871  0.05053  1.0000
  H   H22       1.0  0.03015  0.00009  0.08553  1.0000
  H   H23       1.0  0.07950  0.97379  0.06651  1.0000
