data_image0
_chemical_formula_structural       C2NCOC7OC7NOC7OH24
_chemical_formula_sum              "C24 N2 O4 H24"
_cell_length_a       30
_cell_length_b       30
_cell_length_c       30
_cell_angle_alpha    90
_cell_angle_beta     90
_cell_angle_gamma    90

_space_group_name_H-M_alt    "P 1"
_space_group_IT_number       1

loop_
  _space_group_symop_operation_xyz
  'x, y, z'

loop_
  _atom_site_type_symbol
  _atom_site_label
  _atom_site_symmetry_multiplicity
  _atom_site_fract_x
  _atom_site_fract_y
  _atom_site_fract_z
  _atom_site_occupancy
  C   C1        1.0  0.94378  0.15772  0.95503  1.0000
  C   C2        1.0  0.96003  0.11987  0.92573  1.0000
  N   N1        1.0  0.93291  0.08029  0.93146  1.0000
  C   C3        1.0  0.94812  0.03881  0.91832  1.0000
  O   O1        1.0  0.98628  0.03229  0.90496  1.0000
  C   C4        1.0  0.91387  0.00193  0.92407  1.0000
  C   C5        1.0  0.91322  0.98514  0.97224  1.0000
  C   C6        1.0  0.95253  0.95472  0.98064  1.0000
  C   C7        1.0  0.98520  0.96737  0.00877  1.0000
  C   C8        1.0  0.02819  0.94670  0.01594  1.0000
  C   C9        1.0  0.06464  0.96782  0.03131  1.0000
  C   C10       1.0  0.07101  0.01682  0.04215  1.0000
  O   O2        1.0  0.05047  0.02645  0.08393  1.0000
  C   C11       1.0  0.07416  0.02119  0.12245  1.0000
  C   C12       1.0  0.11591  0.00119  0.12684  1.0000
  C   C13       1.0  0.13602  0.99787  0.16879  1.0000
  C   C14       1.0  0.11449  0.01438  0.20651  1.0000
  C   C15       1.0  0.07274  0.03419  0.20238  1.0000
  C   C16       1.0  0.05273  0.03747  0.16050  1.0000
  C   C17       1.0  0.05161  0.04812  0.00545  1.0000
  N   N2        1.0  0.06383  0.03856  0.96233  1.0000
  O   O3        1.0  0.02767  0.08053  0.01305  1.0000
  C   C18       1.0  0.95233  0.91570  0.95062  1.0000
  C   C19       1.0  0.96414  0.87290  0.96520  1.0000
  C   C20       1.0  0.96366  0.83669  0.93587  1.0000
  C   C21       1.0  0.95062  0.84259  0.89172  1.0000
  C   C22       1.0  0.93716  0.88455  0.87706  1.0000
  C   C23       1.0  0.93739  0.92085  0.90651  1.0000
  C   C24       1.0  0.91996  0.96457  0.89067  1.0000
  O   O4        1.0  0.90982  0.96946  0.85121  1.0000
  H   H1        1.0  0.96450  0.18737  0.95024  1.0000
  H   H2        1.0  0.90922  0.16649  0.94703  1.0000
  H   H3        1.0  0.94502  0.14838  0.99032  1.0000
  H   H4        1.0  0.99486  0.11206  0.93327  1.0000
  H   H5        1.0  0.95816  0.12934  0.89050  1.0000
  H   H6        1.0  0.89963  0.08483  0.93453  1.0000
  H   H7        1.0  0.88077  0.01602  0.91709  1.0000
  H   H8        1.0  0.88234  0.96649  0.97856  1.0000
  H   H9        1.0  0.91292  0.01332  0.99557  1.0000
  H   H10       1.0  0.98005  0.99836  0.02717  1.0000
  H   H11       1.0  0.03177  0.91158  0.00804  1.0000
  H   H12       1.0  0.09459  0.94780  0.03564  1.0000
  H   H13       1.0  0.10665  0.02511  0.04259  1.0000
  H   H14       1.0  0.13379  0.98754  0.09858  1.0000
  H   H15       1.0  0.16857  0.98228  0.17201  1.0000
  H   H16       1.0  0.13022  0.01177  0.23904  1.0000
  H   H17       1.0  0.05570  0.04712  0.23162  1.0000
  H   H18       1.0  0.02013  0.05301  0.15739  1.0000
  H   H19       1.0  0.06947  0.00631  0.95416  1.0000
  H   H20       1.0  0.04448  0.05406  0.93910  1.0000
  H   H21       1.0  0.97312  0.86699  0.99982  1.0000
  H   H22       1.0  0.97323  0.80377  0.94766  1.0000
  H   H23       1.0  0.95027  0.81444  0.86889  1.0000
  H   H24       1.0  0.92605  0.88883  0.84279  1.0000
