data_image0
_chemical_formula_structural       C2NC8OCSC2OC9NC2H26
_chemical_formula_sum              "C24 N2 O2 S1 H26"
_cell_length_a       30
_cell_length_b       30
_cell_length_c       30
_cell_angle_alpha    90
_cell_angle_beta     90
_cell_angle_gamma    90

_space_group_name_H-M_alt    "P 1"
_space_group_IT_number       1

loop_
  _space_group_symop_operation_xyz
  'x, y, z'

loop_
  _atom_site_type_symbol
  _atom_site_label
  _atom_site_symmetry_multiplicity
  _atom_site_fract_x
  _atom_site_fract_y
  _atom_site_fract_z
  _atom_site_occupancy
  C   C1        1.0  0.86145  0.89471  0.01193  1.0000
  C   C2        1.0  0.89955  0.92692  0.02096  1.0000
  N   N1        1.0  0.90509  0.95666  0.98292  1.0000
  C   C3        1.0  0.94061  0.98938  0.98980  1.0000
  C   C4        1.0  0.92688  0.03140  0.01667  1.0000
  C   C5        1.0  0.88692  0.05786  0.00027  1.0000
  C   C6        1.0  0.89340  0.09138  0.96812  1.0000
  C   C7        1.0  0.85766  0.11631  0.95200  1.0000
  C   C8        1.0  0.81494  0.10835  0.96808  1.0000
  C   C9        1.0  0.80794  0.07554  0.00034  1.0000
  C   C10       1.0  0.84359  0.05006  0.01651  1.0000
  O   O1        1.0  0.83938  0.01829  0.04910  1.0000
  C   C11       1.0  0.79593  0.00078  0.05627  1.0000
  S   S1        1.0  0.96196  0.00341  0.93389  1.0000
  C   C12       1.0  0.01505  0.97417  0.93519  1.0000
  C   C13       1.0  0.04826  0.99369  0.96816  1.0000
  O   O2        1.0  0.03843  0.02177  0.99638  1.0000
  C   C14       1.0  0.09525  0.97684  0.96690  1.0000
  C   C15       1.0  0.10883  0.94264  0.93826  1.0000
  C   C16       1.0  0.15303  0.92816  0.93867  1.0000
  C   C17       1.0  0.18382  0.94758  0.96769  1.0000
  C   C18       1.0  0.17118  0.98184  0.99695  1.0000
  C   C19       1.0  0.20359  0.00217  0.02762  1.0000
  C   C20       1.0  0.20879  0.04847  0.03101  1.0000
  C   C21       1.0  0.23998  0.06656  0.06034  1.0000
  C   C22       1.0  0.26543  0.03770  0.08579  1.0000
  N   N2        1.0  0.26173  0.99293  0.08384  1.0000
  C   C23       1.0  0.23102  0.97643  0.05506  1.0000
  C   C24       1.0  0.12653  0.99608  0.99599  1.0000
  H   H1        1.0  0.85690  0.87229  0.04037  1.0000
  H   H2        1.0  0.83006  0.91256  0.00659  1.0000
  H   H3        1.0  0.86812  0.87423  0.98245  1.0000
  H   H4        1.0  0.93014  0.90778  0.02676  1.0000
  H   H5        1.0  0.89217  0.94570  0.05137  1.0000
  H   H6        1.0  0.91241  0.93895  0.95496  1.0000
  H   H7        1.0  0.96804  0.97347  0.00789  1.0000
  H   H8        1.0  0.92103  0.02161  0.05144  1.0000
  H   H9        1.0  0.95549  0.05418  0.01879  1.0000
  H   H10       1.0  0.92666  0.09809  0.95532  1.0000
  H   H11       1.0  0.86329  0.14188  0.92698  1.0000
  H   H12       1.0  0.78702  0.12785  0.95573  1.0000
  H   H13       1.0  0.77428  0.07095  0.01267  1.0000
  H   H14       1.0  0.77487  0.02500  0.07364  1.0000
  H   H15       1.0  0.78045  0.98988  0.02507  1.0000
  H   H16       1.0  0.79913  0.97151  0.07781  1.0000
  H   H17       1.0  0.00907  0.93905  0.94301  1.0000
  H   H18       1.0  0.02887  0.97688  0.90155  1.0000
  H   H19       1.0  0.08597  0.92651  0.91530  1.0000
  H   H20       1.0  0.16369  0.90169  0.91629  1.0000
  H   H21       1.0  0.21820  0.93589  0.96695  1.0000
  H   H22       1.0  0.18884  0.07080  0.01056  1.0000
  H   H23       1.0  0.24431  0.10234  0.06315  1.0000
  H   H24       1.0  0.29017  0.05019  0.10909  1.0000
  H   H25       1.0  0.22885  0.94023  0.05498  1.0000
  H   H26       1.0  0.11577  0.02239  0.01865  1.0000
