data_image0
_chemical_formula_structural       C2NC4ONC4ONC9OH25
_chemical_formula_sum              "C19 N3 O3 H25"
_cell_length_a       30
_cell_length_b       30
_cell_length_c       30
_cell_angle_alpha    90
_cell_angle_beta     90
_cell_angle_gamma    90

_space_group_name_H-M_alt    "P 1"
_space_group_IT_number       1

loop_
  _space_group_symop_operation_xyz
  'x, y, z'

loop_
  _atom_site_type_symbol
  _atom_site_label
  _atom_site_symmetry_multiplicity
  _atom_site_fract_x
  _atom_site_fract_y
  _atom_site_fract_z
  _atom_site_occupancy
  C   C1        1.0  0.27735  0.99586  0.94928  1.0000
  C   C2        1.0  0.23473  0.97281  0.96404  1.0000
  N   N1        1.0  0.21148  0.00035  0.99704  1.0000
  C   C3        1.0  0.17433  0.97581  0.01700  1.0000
  C   C4        1.0  0.14207  0.00839  0.03923  1.0000
  C   C5        1.0  0.11647  0.03443  0.00398  1.0000
  C   C6        1.0  0.07585  0.06120  0.02057  1.0000
  O   O1        1.0  0.06839  0.08922  0.04866  1.0000
  N   N2        1.0  0.04826  0.03938  0.99205  1.0000
  C   C7        1.0  0.00014  0.03717  0.99104  1.0000
  C   C8        1.0  0.98135  0.01053  0.03033  1.0000
  C   C9        1.0  0.93029  0.00835  0.02974  1.0000
  C   C10       1.0  0.91202  0.97766  0.99399  1.0000
  O   O2        1.0  0.93772  0.95489  0.97137  1.0000
  N   N3        1.0  0.86668  0.97565  0.98681  1.0000
  C   C11       1.0  0.84975  0.94651  0.95111  1.0000
  C   C12       1.0  0.79976  0.95482  0.94662  1.0000
  C   C13       1.0  0.79067  0.98335  0.98648  1.0000
  C   C14       1.0  0.74911  0.99795  0.00076  1.0000
  C   C15       1.0  0.74693  0.02486  0.03855  1.0000
  C   C16       1.0  0.78600  0.03671  0.06107  1.0000
  C   C17       1.0  0.82779  0.02193  0.04620  1.0000
  C   C18       1.0  0.83003  0.99523  0.00861  1.0000
  C   C19       1.0  0.07895  0.00845  0.98012  1.0000
  O   O3        1.0  0.07539  0.97311  0.96108  1.0000
  H   H1        1.0  0.30119  0.99791  0.97676  1.0000
  H   H2        1.0  0.27051  0.02976  0.93758  1.0000
  H   H3        1.0  0.29308  0.97728  0.92197  1.0000
  H   H4        1.0  0.21323  0.96776  0.93500  1.0000
  H   H5        1.0  0.24294  0.94015  0.97788  1.0000
  H   H6        1.0  0.23340  0.00914  0.02157  1.0000
  H   H7        1.0  0.15673  0.95609  0.99175  1.0000
  H   H8        1.0  0.18736  0.95235  0.04195  1.0000
  H   H9        1.0  0.11894  0.98946  0.06031  1.0000
  H   H10       1.0  0.16008  0.03125  0.06128  1.0000
  H   H11       1.0  0.13750  0.05390  0.98128  1.0000
  H   H12       1.0  0.98757  0.07140  0.99224  1.0000
  H   H13       1.0  0.99050  0.02217  0.95928  1.0000
  H   H14       1.0  0.99186  0.02644  0.06154  1.0000
  H   H15       1.0  0.99568  0.97688  0.03067  1.0000
  H   H16       1.0  0.91944  0.99514  0.06205  1.0000
  H   H17       1.0  0.91700  0.04198  0.02487  1.0000
  H   H18       1.0  0.85653  0.91184  0.96065  1.0000
  H   H19       1.0  0.86750  0.95324  0.91988  1.0000
  H   H20       1.0  0.78095  0.92364  0.94751  1.0000
  H   H21       1.0  0.79211  0.97293  0.91587  1.0000
  H   H22       1.0  0.71897  0.98866  0.98308  1.0000
  H   H23       1.0  0.71484  0.03669  0.05060  1.0000
  H   H24       1.0  0.78388  0.05754  0.09060  1.0000
  H   H25       1.0  0.85665  0.03177  0.06525  1.0000
