data_image0
_chemical_formula_structural       C2OCOC3NCONC11H28
_chemical_formula_sum              "C18 O3 N2 H28"
_cell_length_a       30
_cell_length_b       30
_cell_length_c       30
_cell_angle_alpha    90
_cell_angle_beta     90
_cell_angle_gamma    90

_space_group_name_H-M_alt    "P 1"
_space_group_IT_number       1

loop_
  _space_group_symop_operation_xyz
  'x, y, z'

loop_
  _atom_site_type_symbol
  _atom_site_label
  _atom_site_symmetry_multiplicity
  _atom_site_fract_x
  _atom_site_fract_y
  _atom_site_fract_z
  _atom_site_occupancy
  C   C1        1.0  0.26456  0.03374  0.94077  1.0000
  C   C2        1.0  0.24848  0.01305  0.98396  1.0000
  O   O1        1.0  0.20094  0.01743  0.98571  1.0000
  C   C3        1.0  0.18184  0.99938  0.02275  1.0000
  O   O2        1.0  0.20259  0.98171  0.05315  1.0000
  C   C4        1.0  0.13181  0.00630  0.02333  1.0000
  C   C5        1.0  0.12162  0.05081  0.04579  1.0000
  C   C6        1.0  0.11204  0.00336  0.97627  1.0000
  N   N1        1.0  0.06356  0.00389  0.97578  1.0000
  C   C7        1.0  0.03982  0.96679  0.98828  1.0000
  O   O3        1.0  0.05659  0.93238  0.00213  1.0000
  N   N2        1.0  0.99498  0.97398  0.98340  1.0000
  C   C8        1.0  0.96288  0.94097  0.99879  1.0000
  C   C9        1.0  0.96115  0.90028  0.96799  1.0000
  C   C10       1.0  0.91755  0.96306  0.00374  1.0000
  C   C11       1.0  0.90020  0.97123  0.04633  1.0000
  C   C12       1.0  0.85922  0.99275  0.05169  1.0000
  C   C13       1.0  0.83451  0.00673  0.01462  1.0000
  C   C14       1.0  0.79010  0.03050  0.01956  1.0000
  C   C15       1.0  0.75672  0.00338  0.04704  1.0000
  C   C16       1.0  0.79639  0.07710  0.03938  1.0000
  C   C17       1.0  0.85200  0.99884  0.97203  1.0000
  C   C18       1.0  0.89302  0.97741  0.96664  1.0000
  H   H1        1.0  0.24919  0.01720  0.91213  1.0000
  H   H2        1.0  0.30079  0.03119  0.93781  1.0000
  H   H3        1.0  0.25507  0.06891  0.93906  1.0000
  H   H4        1.0  0.25767  0.97774  0.98488  1.0000
  H   H5        1.0  0.26349  0.03047  0.01230  1.0000
  H   H6        1.0  0.11792  0.97938  0.04377  1.0000
  H   H7        1.0  0.13687  0.05242  0.07894  1.0000
  H   H8        1.0  0.08566  0.05568  0.04980  1.0000
  H   H9        1.0  0.13487  0.07879  0.02639  1.0000
  H   H10       1.0  0.12329  0.97291  0.95944  1.0000
  H   H11       1.0  0.12275  0.03176  0.95590  1.0000
  H   H12       1.0  0.04899  0.02118  0.95079  1.0000
  H   H13       1.0  0.98606  0.00603  0.98840  1.0000
  H   H14       1.0  0.97408  0.92941  0.03165  1.0000
  H   H15       1.0  0.99308  0.88258  0.96781  1.0000
  H   H16       1.0  0.95397  0.90961  0.93343  1.0000
  H   H17       1.0  0.93548  0.87672  0.97890  1.0000
  H   H18       1.0  0.91858  0.96097  0.07586  1.0000
  H   H19       1.0  0.84694  0.99867  0.08528  1.0000
  H   H20       1.0  0.77544  0.03464  0.98628  1.0000
  H   H21       1.0  0.75257  0.96985  0.03311  1.0000
  H   H22       1.0  0.72398  0.01962  0.04701  1.0000
  H   H23       1.0  0.76722  0.99985  0.08184  1.0000
  H   H24       1.0  0.76456  0.09493  0.04075  1.0000
  H   H25       1.0  0.81940  0.09691  0.01908  1.0000
  H   H26       1.0  0.80988  0.07573  0.07330  1.0000
  H   H27       1.0  0.83384  0.00955  0.94253  1.0000
  H   H28       1.0  0.90580  0.97223  0.93313  1.0000
