data_image0
_chemical_formula_structural       C2OCOCN2SCO2C6SH12
_chemical_formula_sum              "C11 O4 N2 S2 H12"
_cell_length_a       30
_cell_length_b       30
_cell_length_c       30
_cell_angle_alpha    90
_cell_angle_beta     90
_cell_angle_gamma    90

_space_group_name_H-M_alt    "P 1"
_space_group_IT_number       1

loop_
  _space_group_symop_operation_xyz
  'x, y, z'

loop_
  _atom_site_type_symbol
  _atom_site_label
  _atom_site_symmetry_multiplicity
  _atom_site_fract_x
  _atom_site_fract_y
  _atom_site_fract_z
  _atom_site_occupancy
  C   C1        1.0  0.86927  0.01080  0.89472  1.0000
  C   C2        1.0  0.86484  0.00068  0.94407  1.0000
  O   O1        1.0  0.90800  0.99332  0.96325  1.0000
  C   C3        1.0  0.92922  0.03020  0.97802  1.0000
  O   O2        1.0  0.91653  0.06873  0.97631  1.0000
  C   C4        1.0  0.97388  0.01698  0.99650  1.0000
  N   N1        1.0  0.00867  0.00959  0.97210  1.0000
  N   N2        1.0  0.05034  0.99438  0.99668  1.0000
  S   S1        1.0  0.05854  0.93670  0.99609  1.0000
  C   C5        1.0  0.06238  0.92780  0.93760  1.0000
  O   O3        1.0  0.10173  0.92622  0.01505  1.0000
  O   O4        1.0  0.01829  0.91531  0.01217  1.0000
  C   C6        1.0  0.05887  0.01403  0.03997  1.0000
  C   C7        1.0  0.10298  0.02072  0.05351  1.0000
  C   C8        1.0  0.11221  0.03694  0.09611  1.0000
  C   C9        1.0  0.07741  0.04610  0.12548  1.0000
  C   C10       1.0  0.03332  0.03910  0.11230  1.0000
  C   C11       1.0  0.02380  0.02300  0.06955  1.0000
  S   S2        1.0  0.96718  0.01541  0.05358  1.0000
  H   H1        1.0  0.83646  0.01468  0.87932  1.0000
  H   H2        1.0  0.88719  0.98394  0.87769  1.0000
  H   H3        1.0  0.88838  0.04141  0.88932  1.0000
  H   H4        1.0  0.84571  0.96993  0.94865  1.0000
  H   H5        1.0  0.84686  0.02724  0.96157  1.0000
  H   H6        1.0  0.03076  0.93652  0.92189  1.0000
  H   H7        1.0  0.08967  0.94790  0.92436  1.0000
  H   H8        1.0  0.06938  0.89249  0.93214  1.0000
  H   H9        1.0  0.13037  0.01298  0.03107  1.0000
  H   H10       1.0  0.14657  0.04200  0.10649  1.0000
  H   H11       1.0  0.08460  0.05853  0.15877  1.0000
  H   H12       1.0  0.00656  0.04633  0.13568  1.0000
