data_image0
_chemical_formula_structural       C2OCOC3OC5O2CH22
_chemical_formula_sum              "C12 O5 H22"
_cell_length_a       30
_cell_length_b       30
_cell_length_c       30
_cell_angle_alpha    90
_cell_angle_beta     90
_cell_angle_gamma    90

_space_group_name_H-M_alt    "P 1"
_space_group_IT_number       1

loop_
  _space_group_symop_operation_xyz
  'x, y, z'

loop_
  _atom_site_type_symbol
  _atom_site_label
  _atom_site_symmetry_multiplicity
  _atom_site_fract_x
  _atom_site_fract_y
  _atom_site_fract_z
  _atom_site_occupancy
  C   C1        1.0  0.90442  0.08551  0.95368  1.0000
  C   C2        1.0  0.91794  0.05085  0.98793  1.0000
  O   O1        1.0  0.95956  0.03233  0.97429  1.0000
  C   C3        1.0  0.97630  0.99789  0.00305  1.0000
  O   O2        1.0  0.94460  0.96249  0.00647  1.0000
  C   C4        1.0  0.93610  0.93914  0.96599  1.0000
  C   C5        1.0  0.89387  0.91203  0.97228  1.0000
  C   C6        1.0  0.02295  0.98523  0.98310  1.0000
  O   O3        1.0  0.03483  0.94633  0.97702  1.0000
  C   C7        1.0  0.05356  0.02411  0.97073  1.0000
  C   C8        1.0  0.10326  0.01758  0.98121  1.0000
  C   C9        1.0  0.11137  0.00612  0.03020  1.0000
  C   C10       1.0  0.12589  0.98378  0.95053  1.0000
  C   C11       1.0  0.98717  0.01414  0.05161  1.0000
  O   O4        1.0  0.98963  0.05326  0.06335  1.0000
  O   O5        1.0  0.99544  0.97884  0.07925  1.0000
  C   C12       1.0  0.00638  0.99093  0.12394  1.0000
  H   H1        1.0  0.92976  0.11167  0.95118  1.0000
  H   H2        1.0  0.90144  0.07039  0.92059  1.0000
  H   H3        1.0  0.87254  0.10079  0.96254  1.0000
  H   H4        1.0  0.89230  0.02493  0.98955  1.0000
  H   H5        1.0  0.92078  0.06675  0.02058  1.0000
  H   H6        1.0  0.93162  0.96225  0.93809  1.0000
  H   H7        1.0  0.96356  0.91643  0.95846  1.0000
  H   H8        1.0  0.86569  0.93382  0.98027  1.0000
  H   H9        1.0  0.89755  0.88877  0.00016  1.0000
  H   H10       1.0  0.88594  0.89313  0.94214  1.0000
  H   H11       1.0  0.04876  0.03085  0.93514  1.0000
  H   H12       1.0  0.04232  0.05390  0.98863  1.0000
  H   H13       1.0  0.11945  0.04981  0.97489  1.0000
  H   H14       1.0  0.14715  0.00571  0.03749  1.0000
  H   H15       1.0  0.09590  0.03093  0.05205  1.0000
  H   H16       1.0  0.09795  0.97334  0.03890  1.0000
  H   H17       1.0  0.11492  0.94964  0.95707  1.0000
  H   H18       1.0  0.16209  0.98462  0.95528  1.0000
  H   H19       1.0  0.11918  0.99147  0.91549  1.0000
  H   H20       1.0  0.03690  0.01090  0.12465  1.0000
  H   H21       1.0  0.01219  0.96032  0.14284  1.0000
  H   H22       1.0  0.97873  0.00901  0.13941  1.0000
