data_image0
_chemical_formula_structural       C2OC4OC3ONC5OC11OH33
_chemical_formula_sum              "C25 O5 N1 H33"
_cell_length_a       30
_cell_length_b       30
_cell_length_c       30
_cell_angle_alpha    90
_cell_angle_beta     90
_cell_angle_gamma    90

_space_group_name_H-M_alt    "P 1"
_space_group_IT_number       1

loop_
  _space_group_symop_operation_xyz
  'x, y, z'

loop_
  _atom_site_type_symbol
  _atom_site_label
  _atom_site_symmetry_multiplicity
  _atom_site_fract_x
  _atom_site_fract_y
  _atom_site_fract_z
  _atom_site_occupancy
  C   C1        1.0  0.18515  0.05327  0.88724  1.0000
  C   C2        1.0  0.17236  0.03324  0.93194  1.0000
  O   O1        1.0  0.12489  0.03335  0.93499  1.0000
  C   C3        1.0  0.10741  0.01197  0.97125  1.0000
  C   C4        1.0  0.06426  0.00259  0.97654  1.0000
  C   C5        1.0  0.05390  0.98008  0.01780  1.0000
  C   C6        1.0  0.01350  0.97058  0.03491  1.0000
  O   O2        1.0  0.01203  0.94640  0.07457  1.0000
  C   C7        1.0  0.96962  0.92482  0.07468  1.0000
  C   C8        1.0  0.93682  0.95904  0.05626  1.0000
  C   C9        1.0  0.88926  0.93423  0.05187  1.0000
  O   O3        1.0  0.88497  0.89526  0.06448  1.0000
  N   N1        1.0  0.85022  0.95549  0.03725  1.0000
  C   C10       1.0  0.85475  0.98428  0.00010  1.0000
  C   C11       1.0  0.88163  0.02224  0.01549  1.0000
  C   C12       1.0  0.91474  0.02868  0.97809  1.0000
  C   C13       1.0  0.88512  0.05859  0.94878  1.0000
  C   C14       1.0  0.83683  0.03438  0.94181  1.0000
  O   O4        1.0  0.81855  0.00642  0.97897  1.0000
  C   C15       1.0  0.93074  0.99017  0.94587  1.0000
  C   C16       1.0  0.95706  0.95637  0.97333  1.0000
  C   C17       1.0  0.96672  0.98076  0.01743  1.0000
  C   C18       1.0  0.95917  0.03283  0.00312  1.0000
  C   C19       1.0  0.96253  0.06621  0.04057  1.0000
  C   C20       1.0  0.00367  0.09490  0.04495  1.0000
  C   C21       1.0  0.96040  0.11539  0.03032  1.0000
  C   C22       1.0  0.09775  0.96893  0.04109  1.0000
  C   C23       1.0  0.10871  0.91897  0.04137  1.0000
  C   C24       1.0  0.14777  0.90790  0.07191  1.0000
  C   C25       1.0  0.13010  0.99415  0.01141  1.0000
  O   O5        1.0  0.16990  0.99879  0.01919  1.0000
  H   H1        1.0  0.17276  0.08749  0.88446  1.0000
  H   H2        1.0  0.17017  0.03428  0.85989  1.0000
  H   H3        1.0  0.22134  0.05343  0.88297  1.0000
  H   H4        1.0  0.18521  0.99907  0.93374  1.0000
  H   H5        1.0  0.18667  0.05362  0.95863  1.0000
  H   H6        1.0  0.03997  0.01131  0.95151  1.0000
  H   H7        1.0  0.96151  0.91508  0.10891  1.0000
  H   H8        1.0  0.97156  0.89448  0.05434  1.0000
  H   H9        1.0  0.93326  0.98317  0.08357  1.0000
  H   H10       1.0  0.82394  0.93437  0.03608  1.0000
  H   H11       1.0  0.86736  0.96126  0.97524  1.0000
  H   H12       1.0  0.86120  0.05236  0.02129  1.0000
  H   H13       1.0  0.89415  0.01948  0.04915  1.0000
  H   H14       1.0  0.87960  0.09107  0.96474  1.0000
  H   H15       1.0  0.89984  0.06567  0.91610  1.0000
  H   H16       1.0  0.83899  0.01230  0.91278  1.0000
  H   H17       1.0  0.81170  0.05978  0.93438  1.0000
  H   H18       1.0  0.95345  0.00484  0.92104  1.0000
  H   H19       1.0  0.90509  0.97415  0.92549  1.0000
  H   H20       1.0  0.93785  0.92571  0.97803  1.0000
  H   H21       1.0  0.98719  0.94671  0.95511  1.0000
  H   H22       1.0  0.98430  0.04270  0.97856  1.0000
  H   H23       1.0  0.94815  0.05527  0.07184  1.0000
  H   H24       1.0  0.01559  0.10228  0.07828  1.0000
  H   H25       1.0  0.03010  0.09187  0.02049  1.0000
  H   H26       1.0  0.95758  0.12607  0.99594  1.0000
  H   H27       1.0  0.94312  0.13689  0.05373  1.0000
  H   H28       1.0  0.09829  0.98381  0.07447  1.0000
  H   H29       1.0  0.07993  0.89957  0.05272  1.0000
  H   H30       1.0  0.11652  0.90727  0.00760  1.0000
  H   H31       1.0  0.14149  0.91957  0.10589  1.0000
  H   H32       1.0  0.17876  0.92302  0.06008  1.0000
  H   H33       1.0  0.15287  0.87179  0.07310  1.0000
