data_image0
_chemical_formula_structural       C2OCONC2NCOCNC5OC13H35
_chemical_formula_sum              "C25 O4 N3 H35"
_cell_length_a       30
_cell_length_b       30
_cell_length_c       30
_cell_angle_alpha    90
_cell_angle_beta     90
_cell_angle_gamma    90

_space_group_name_H-M_alt    "P 1"
_space_group_IT_number       1

loop_
  _space_group_symop_operation_xyz
  'x, y, z'

loop_
  _atom_site_type_symbol
  _atom_site_label
  _atom_site_symmetry_multiplicity
  _atom_site_fract_x
  _atom_site_fract_y
  _atom_site_fract_z
  _atom_site_occupancy
  C   C1        1.0  0.29525  0.02476  0.00599  1.0000
  C   C2        1.0  0.26933  0.01350  0.04797  1.0000
  O   O1        1.0  0.22252  0.01121  0.03837  1.0000
  C   C3        1.0  0.20725  0.97128  0.02315  1.0000
  O   O2        1.0  0.23094  0.93845  0.01762  1.0000
  N   N1        1.0  0.16186  0.97195  0.01463  1.0000
  C   C4        1.0  0.13649  0.01382  0.01320  1.0000
  C   C5        1.0  0.08640  0.00669  0.02184  1.0000
  N   N2        1.0  0.06904  0.97047  0.99398  1.0000
  C   C6        1.0  0.04640  0.97715  0.95401  1.0000
  O   O3        1.0  0.04636  0.94870  0.92424  1.0000
  C   C7        1.0  0.02109  0.02143  0.94828  1.0000
  N   N3        1.0  0.98405  0.01650  0.91682  1.0000
  C   C8        1.0  0.94132  0.00377  0.92859  1.0000
  C   C9        1.0  0.91054  0.98595  0.90139  1.0000
  C   C10       1.0  0.87102  0.97454  0.92599  1.0000
  C   C11       1.0  0.87633  0.98497  0.96927  1.0000
  C   C12       1.0  0.84472  0.97326  0.00630  1.0000
  O   O4        1.0  0.83149  0.01249  0.02994  1.0000
  C   C13       1.0  0.79884  0.03813  0.00709  1.0000
  C   C14       1.0  0.86525  0.94032  0.04055  1.0000
  C   C15       1.0  0.88080  0.89674  0.01891  1.0000
  C   C16       1.0  0.83178  0.92963  0.07776  1.0000
  C   C17       1.0  0.92162  0.00673  0.97596  1.0000
  C   C18       1.0  0.91962  0.05384  0.99482  1.0000
  C   C19       1.0  0.92781  0.06078  0.04044  1.0000
  C   C20       1.0  0.92580  0.10350  0.05882  1.0000
  C   C21       1.0  0.91551  0.13993  0.03195  1.0000
  C   C22       1.0  0.90702  0.13368  0.98674  1.0000
  C   C23       1.0  0.90890  0.09096  0.96834  1.0000
  C   C24       1.0  0.09285  0.92829  0.00035  1.0000
  C   C25       1.0  0.14265  0.93403  0.99035  1.0000
  H   H1        1.0  0.33070  0.02903  0.01340  1.0000
  H   H2        1.0  0.28259  0.05550  0.99089  1.0000
  H   H3        1.0  0.29173  0.99842  0.98096  1.0000
  H   H4        1.0  0.27382  0.04006  0.07262  1.0000
  H   H5        1.0  0.28130  0.98256  0.06325  1.0000
  H   H6        1.0  0.14158  0.02803  0.97989  1.0000
  H   H7        1.0  0.14955  0.03763  0.03756  1.0000
  H   H8        1.0  0.08108  0.99691  0.05666  1.0000
  H   H9        1.0  0.06868  0.03796  0.01623  1.0000
  H   H10       1.0  0.00900  0.03357  0.98037  1.0000
  H   H11       1.0  0.04465  0.04586  0.93481  1.0000
  H   H12       1.0  0.99421  0.00140  0.88805  1.0000
  H   H13       1.0  0.91471  0.97933  0.86627  1.0000
  H   H14       1.0  0.84281  0.95758  0.91144  1.0000
  H   H15       1.0  0.81475  0.95741  0.99238  1.0000
  H   H16       1.0  0.81118  0.04975  0.97481  1.0000
  H   H17       1.0  0.79098  0.06728  0.02754  1.0000
  H   H18       1.0  0.76832  0.01866  0.00253  1.0000
  H   H19       1.0  0.89404  0.95612  0.05668  1.0000
  H   H20       1.0  0.90763  0.90254  0.99488  1.0000
  H   H21       1.0  0.85334  0.88009  0.00152  1.0000
  H   H22       1.0  0.89375  0.87368  0.04410  1.0000
  H   H23       1.0  0.82239  0.95969  0.09623  1.0000
  H   H24       1.0  0.80136  0.91467  0.06419  1.0000
  H   H25       1.0  0.84617  0.90616  0.10178  1.0000
  H   H26       1.0  0.94212  0.98557  0.99771  1.0000
  H   H27       1.0  0.93514  0.03268  0.06215  1.0000
  H   H28       1.0  0.93186  0.10823  0.09422  1.0000
  H   H29       1.0  0.91381  0.17313  0.04630  1.0000
  H   H30       1.0  0.89876  0.16199  0.96570  1.0000
  H   H31       1.0  0.90199  0.08684  0.93297  1.0000
  H   H32       1.0  0.08813  0.91851  0.03526  1.0000
  H   H33       1.0  0.07871  0.90184  0.97954  1.0000
  H   H34       1.0  0.16051  0.90330  0.99870  1.0000
  H   H35       1.0  0.14778  0.94057  0.95473  1.0000
