data_image0
_chemical_formula_structural       C2OCOC3NC3NC3NC4N2C3N2C2H31
_chemical_formula_sum              "C21 O2 N7 H31"
_cell_length_a       30
_cell_length_b       30
_cell_length_c       30
_cell_angle_alpha    90
_cell_angle_beta     90
_cell_angle_gamma    90

_space_group_name_H-M_alt    "P 1"
_space_group_IT_number       1

loop_
  _space_group_symop_operation_xyz
  'x, y, z'

loop_
  _atom_site_type_symbol
  _atom_site_label
  _atom_site_symmetry_multiplicity
  _atom_site_fract_x
  _atom_site_fract_y
  _atom_site_fract_z
  _atom_site_occupancy
  C   C1        1.0  0.17354  0.00654  0.09046  1.0000
  C   C2        1.0  0.16432  0.96400  0.06447  1.0000
  O   O1        1.0  0.14141  0.97422  0.02361  1.0000
  C   C3        1.0  0.16737  0.98544  0.98826  1.0000
  O   O2        1.0  0.20815  0.98718  0.98863  1.0000
  C   C4        1.0  0.13956  0.99442  0.94703  1.0000
  C   C5        1.0  0.09991  0.02518  0.95672  1.0000
  C   C6        1.0  0.05646  0.99909  0.96270  1.0000
  N   N1        1.0  0.04609  0.97252  0.92277  1.0000
  C   C7        1.0  0.00329  0.96019  0.91039  1.0000
  C   C8        1.0  0.96271  0.96238  0.92886  1.0000
  C   C9        1.0  0.94928  0.97823  0.97391  1.0000
  N   N2        1.0  0.97203  0.97192  0.00960  1.0000
  C   C10       1.0  0.95230  0.98434  0.05267  1.0000
  C   C11       1.0  0.95672  0.03438  0.06340  1.0000
  C   C12       1.0  0.91693  0.06526  0.05313  1.0000
  N   N3        1.0  0.92257  0.09722  0.01607  1.0000
  C   C13       1.0  0.88442  0.12765  0.01424  1.0000
  C   C14       1.0  0.93307  0.07869  0.97197  1.0000
  C   C15       1.0  0.90079  0.04488  0.95122  1.0000
  C   C16       1.0  0.90431  0.00093  0.97489  1.0000
  N   N4        1.0  0.87051  0.98507  0.99662  1.0000
  N   N5        1.0  0.88052  0.95168  0.02579  1.0000
  C   C17       1.0  0.84656  0.92206  0.03537  1.0000
  C   C18       1.0  0.83880  0.90436  0.07533  1.0000
  C   C19       1.0  0.86908  0.92109  0.11011  1.0000
  N   N6        1.0  0.90172  0.94873  0.10484  1.0000
  N   N7        1.0  0.90860  0.96452  0.06229  1.0000
  C   C20       1.0  0.08462  0.95718  0.89632  1.0000
  C   C21       1.0  0.12535  0.95030  0.92579  1.0000
  H   H1        1.0  0.14265  0.02527  0.09596  1.0000
  H   H2        1.0  0.19604  0.02857  0.07200  1.0000
  H   H3        1.0  0.18860  0.99888  0.12287  1.0000
  H   H4        1.0  0.14233  0.94221  0.08387  1.0000
  H   H5        1.0  0.19505  0.94530  0.05800  1.0000
  H   H6        1.0  0.16139  0.01232  0.92371  1.0000
  H   H7        1.0  0.09567  0.04810  0.92848  1.0000
  H   H8        1.0  0.10610  0.04610  0.98604  1.0000
  H   H9        1.0  0.05861  0.97717  0.99186  1.0000
  H   H10       1.0  0.03018  0.02368  0.96859  1.0000
  H   H11       1.0  0.00397  0.94570  0.87699  1.0000
  H   H12       1.0  0.93468  0.95065  0.90891  1.0000
  H   H13       1.0  0.97479  0.96788  0.07648  1.0000
  H   H14       1.0  0.98763  0.04779  0.04927  1.0000
  H   H15       1.0  0.96157  0.03645  0.09968  1.0000
  H   H16       1.0  0.91279  0.08576  0.08331  1.0000
  H   H17       1.0  0.88547  0.04705  0.05043  1.0000
  H   H18       1.0  0.85300  0.11022  0.00759  1.0000
  H   H19       1.0  0.88916  0.15304  0.98842  1.0000
  H   H20       1.0  0.88111  0.14566  0.04588  1.0000
  H   H21       1.0  0.93613  0.10677  0.94858  1.0000
  H   H22       1.0  0.96685  0.06485  0.97337  1.0000
  H   H23       1.0  0.86628  0.05683  0.95208  1.0000
  H   H24       1.0  0.90940  0.03982  0.91609  1.0000
  H   H25       1.0  0.82543  0.91490  0.00693  1.0000
  H   H26       1.0  0.81201  0.88165  0.08328  1.0000
  H   H27       1.0  0.86259  0.90813  0.14393  1.0000
  H   H28       1.0  0.07688  0.92565  0.87948  1.0000
  H   H29       1.0  0.09170  0.98195  0.87057  1.0000
  H   H30       1.0  0.15304  0.93669  0.90610  1.0000
  H   H31       1.0  0.11787  0.92529  0.95148  1.0000
