data_image0
_chemical_formula_structural       C2OCOC5NCOC9O2SH17
_chemical_formula_sum              "C18 O5 N1 S1 H17"
_cell_length_a       30
_cell_length_b       30
_cell_length_c       30
_cell_angle_alpha    90
_cell_angle_beta     90
_cell_angle_gamma    90

_space_group_name_H-M_alt    "P 1"
_space_group_IT_number       1

loop_
  _space_group_symop_operation_xyz
  'x, y, z'

loop_
  _atom_site_type_symbol
  _atom_site_label
  _atom_site_symmetry_multiplicity
  _atom_site_fract_x
  _atom_site_fract_y
  _atom_site_fract_z
  _atom_site_occupancy
  C   C1        1.0  0.22875  0.07277  0.99749  1.0000
  C   C2        1.0  0.20216  0.06340  0.03947  1.0000
  O   O1        1.0  0.16034  0.04313  0.02832  1.0000
  C   C3        1.0  0.16043  0.99786  0.02374  1.0000
  O   O2        1.0  0.19374  0.97466  0.02869  1.0000
  C   C4        1.0  0.11631  0.98085  0.01228  1.0000
  C   C5        1.0  0.10410  0.93665  0.00505  1.0000
  C   C6        1.0  0.13485  0.89749  0.00780  1.0000
  C   C7        1.0  0.05757  0.93305  0.99439  1.0000
  C   C8        1.0  0.03625  0.97365  0.99364  1.0000
  N   N1        1.0  0.99149  0.98017  0.98462  1.0000
  C   C9        1.0  0.96948  0.02090  0.98133  1.0000
  O   O3        1.0  0.98608  0.05808  0.98488  1.0000
  C   C10       1.0  0.91913  0.01483  0.97354  1.0000
  C   C11       1.0  0.89673  0.00758  0.01856  1.0000
  C   C12       1.0  0.84753  0.00333  0.01091  1.0000
  C   C13       1.0  0.82070  0.97736  0.03887  1.0000
  C   C14       1.0  0.77488  0.97472  0.03128  1.0000
  C   C15       1.0  0.75556  0.99824  0.99613  1.0000
  C   C16       1.0  0.78204  0.02466  0.96849  1.0000
  C   C17       1.0  0.82804  0.02727  0.97582  1.0000
  C   C18       1.0  0.85569  0.05648  0.94675  1.0000
  O   O4        1.0  0.83857  0.08239  0.92035  1.0000
  O   O5        1.0  0.90056  0.05296  0.95141  1.0000
  S   S1        1.0  0.07147  0.01579  0.00603  1.0000
  H   H1        1.0  0.25985  0.09003  0.00547  1.0000
  H   H2        1.0  0.23679  0.04184  0.97989  1.0000
  H   H3        1.0  0.20941  0.09339  0.97441  1.0000
  H   H4        1.0  0.22107  0.04284  0.06301  1.0000
  H   H5        1.0  0.19458  0.09482  0.05643  1.0000
  H   H6        1.0  0.11717  0.86635  0.00071  1.0000
  H   H7        1.0  0.16189  0.90072  0.98352  1.0000
  H   H8        1.0  0.14919  0.89479  0.04124  1.0000
  H   H9        1.0  0.04104  0.90169  0.98752  1.0000
  H   H10       1.0  0.97404  0.95206  0.97806  1.0000
  H   H11       1.0  0.91431  0.98614  0.95131  1.0000
  H   H12       1.0  0.90256  0.03602  0.04080  1.0000
  H   H13       1.0  0.90995  0.97762  0.03477  1.0000
  H   H14       1.0  0.83513  0.95919  0.06674  1.0000
  H   H15       1.0  0.75406  0.95450  0.05301  1.0000
  H   H16       1.0  0.71981  0.99633  0.99046  1.0000
  H   H17       1.0  0.76670  0.04340  0.94146  1.0000
