data_image0
_chemical_formula_structural       C2OCOC2NCOC7SC7H23
_chemical_formula_sum              "C20 O3 N1 S1 H23"
_cell_length_a       30
_cell_length_b       30
_cell_length_c       30
_cell_angle_alpha    90
_cell_angle_beta     90
_cell_angle_gamma    90

_space_group_name_H-M_alt    "P 1"
_space_group_IT_number       1

loop_
  _space_group_symop_operation_xyz
  'x, y, z'

loop_
  _atom_site_type_symbol
  _atom_site_label
  _atom_site_symmetry_multiplicity
  _atom_site_fract_x
  _atom_site_fract_y
  _atom_site_fract_z
  _atom_site_occupancy
  C   C1        1.0  0.03329  0.11180  0.94632  1.0000
  C   C2        1.0  0.98898  0.08770  0.94870  1.0000
  O   O1        1.0  0.99248  0.05308  0.98146  1.0000
  C   C3        1.0  0.95525  0.02684  0.98452  1.0000
  O   O2        1.0  0.92180  0.03247  0.96173  1.0000
  C   C4        1.0  0.95910  0.99144  0.01782  1.0000
  C   C5        1.0  0.99509  0.98424  0.04664  1.0000
  N   N1        1.0  0.03416  0.00895  0.04908  1.0000
  C   C6        1.0  0.07067  0.00139  0.07640  1.0000
  O   O3        1.0  0.07573  0.97122  0.10356  1.0000
  C   C7        1.0  0.10679  0.03660  0.07074  1.0000
  C   C8        1.0  0.12781  0.03811  0.02497  1.0000
  C   C9        1.0  0.13912  0.07930  0.00596  1.0000
  C   C10       1.0  0.15960  0.08128  0.96423  1.0000
  C   C11       1.0  0.16926  0.04215  0.94117  1.0000
  C   C12       1.0  0.15885  0.00101  0.96002  1.0000
  C   C13       1.0  0.13854  0.99894  0.00182  1.0000
  S   S1        1.0  0.98653  0.93982  0.08184  1.0000
  C   C14       1.0  0.93678  0.92995  0.05951  1.0000
  C   C15       1.0  0.92566  0.95855  0.02593  1.0000
  C   C16       1.0  0.88058  0.94765  0.00726  1.0000
  C   C17       1.0  0.88374  0.92463  0.96167  1.0000
  C   C18       1.0  0.83840  0.91864  0.93969  1.0000
  C   C19       1.0  0.86153  0.91588  0.04445  1.0000
  C   C20       1.0  0.90247  0.89600  0.06960  1.0000
  H   H1        1.0  0.04257  0.12504  0.97904  1.0000
  H   H2        1.0  0.05968  0.08875  0.93617  1.0000
  H   H3        1.0  0.03192  0.13927  0.92240  1.0000
  H   H4        1.0  0.98115  0.07332  0.91604  1.0000
  H   H5        1.0  0.96272  0.11110  0.95852  1.0000
  H   H6        1.0  0.03660  0.03420  0.02661  1.0000
  H   H7        1.0  0.13309  0.03039  0.09536  1.0000
  H   H8        1.0  0.09179  0.06892  0.07905  1.0000
  H   H9        1.0  0.13227  0.11024  0.02360  1.0000
  H   H10       1.0  0.16820  0.11337  0.94977  1.0000
  H   H11       1.0  0.18530  0.04367  0.90872  1.0000
  H   H12       1.0  0.16688  0.97041  0.94233  1.0000
  H   H13       1.0  0.13140  0.96636  0.01618  1.0000
  H   H14       1.0  0.85991  0.97770  0.00502  1.0000
  H   H15       1.0  0.90473  0.94444  0.93922  1.0000
  H   H16       1.0  0.90003  0.89204  0.96483  1.0000
  H   H17       1.0  0.84239  0.90355  0.90671  1.0000
  H   H18       1.0  0.82166  0.95078  0.93540  1.0000
  H   H19       1.0  0.81666  0.89692  0.95930  1.0000
  H   H20       1.0  0.84215  0.93608  0.06807  1.0000
  H   H21       1.0  0.83939  0.88981  0.03187  1.0000
  H   H22       1.0  0.91169  0.86363  0.05548  1.0000
  H   H23       1.0  0.89561  0.89239  0.10521  1.0000
