data_image0
_chemical_formula_structural       C2OCOC3SNO2H13
_chemical_formula_sum              "C6 O4 S1 N1 H13"
_cell_length_a       30
_cell_length_b       30
_cell_length_c       30
_cell_angle_alpha    90
_cell_angle_beta     90
_cell_angle_gamma    90

_space_group_name_H-M_alt    "P 1"
_space_group_IT_number       1

loop_
  _space_group_symop_operation_xyz
  'x, y, z'

loop_
  _atom_site_type_symbol
  _atom_site_label
  _atom_site_symmetry_multiplicity
  _atom_site_fract_x
  _atom_site_fract_y
  _atom_site_fract_z
  _atom_site_occupancy
  C   C1        1.0  0.11823  0.00471  0.98782  1.0000
  C   C2        1.0  0.08524  0.97243  0.96716  1.0000
  O   O1        1.0  0.04129  0.99141  0.96732  1.0000
  C   C3        1.0  0.01732  0.98578  0.00559  1.0000
  O   O2        1.0  0.03006  0.96463  0.03802  1.0000
  C   C4        1.0  0.97257  0.00773  0.00114  1.0000
  C   C5        1.0  0.93453  0.97466  0.00848  1.0000
  C   C6        1.0  0.93089  0.94091  0.97074  1.0000
  S   S1        1.0  0.97260  0.05186  0.04102  1.0000
  N   N1        1.0  0.92628  0.08035  0.02678  1.0000
  O   O3        1.0  0.96333  0.03564  0.08535  1.0000
  O   O4        1.0  0.00849  0.08261  0.03170  1.0000
  H   H1        1.0  0.11725  0.03684  0.97053  1.0000
  H   H2        1.0  0.11006  0.01124  0.02278  1.0000
  H   H3        1.0  0.15214  0.99143  0.98607  1.0000
  H   H4        1.0  0.09412  0.96645  0.93227  1.0000
  H   H5        1.0  0.08575  0.94004  0.98407  1.0000
  H   H6        1.0  0.96980  0.02361  0.96834  1.0000
  H   H7        1.0  0.90276  0.99251  0.01104  1.0000
  H   H8        1.0  0.93892  0.95670  0.04002  1.0000
  H   H9        1.0  0.96096  0.92040  0.96827  1.0000
  H   H10       1.0  0.92572  0.95764  0.93872  1.0000
  H   H11       1.0  0.90259  0.91862  0.97652  1.0000
  H   H12       1.0  0.93484  0.11200  0.01743  1.0000
  H   H13       1.0  0.90425  0.07979  0.05281  1.0000
