data_image0
_chemical_formula_structural       C2OCOC7ONC4ClC2OC2F2H16
_chemical_formula_sum              "C18 O4 N1 Cl1 F2 H16"
_cell_length_a       30
_cell_length_b       30
_cell_length_c       30
_cell_angle_alpha    90
_cell_angle_beta     90
_cell_angle_gamma    90

_space_group_name_H-M_alt    "P 1"
_space_group_IT_number       1

loop_
  _space_group_symop_operation_xyz
  'x, y, z'

loop_
  _atom_site_type_symbol
  _atom_site_label
  _atom_site_symmetry_multiplicity
  _atom_site_fract_x
  _atom_site_fract_y
  _atom_site_fract_z
  _atom_site_occupancy
  C   C1        1.0  0.94197  0.02435  0.08736  1.0000
  C   C2        1.0  0.91004  0.04463  0.05376  1.0000
  O   O1        1.0  0.90330  0.01441  0.01728  1.0000
  C   C3        1.0  0.93363  0.01704  0.98405  1.0000
  O   O2        1.0  0.96479  0.04287  0.98030  1.0000
  C   C4        1.0  0.92384  0.98206  0.95136  1.0000
  C   C5        1.0  0.88641  0.98760  0.92390  1.0000
  C   C6        1.0  0.87554  0.95494  0.89267  1.0000
  C   C7        1.0  0.90172  0.91674  0.88894  1.0000
  C   C8        1.0  0.93900  0.91121  0.91627  1.0000
  C   C9        1.0  0.95067  0.94410  0.94745  1.0000
  C   C10       1.0  0.99000  0.93493  0.97613  1.0000
  O   O3        1.0  0.99293  0.89764  0.99261  1.0000
  N   N1        1.0  0.02035  0.96912  0.97997  1.0000
  C   C11       1.0  0.06054  0.96970  0.00456  1.0000
  C   C12       1.0  0.07566  0.93402  0.03030  1.0000
  C   C13       1.0  0.11569  0.93747  0.05387  1.0000
  C   C14       1.0  0.14068  0.97650  0.05155  1.0000
  Cl  Cl1       1.0  0.19023  0.98022  0.08024  1.0000
  C   C15       1.0  0.12613  0.01248  0.02600  1.0000
  C   C16       1.0  0.08589  0.00933  0.00286  1.0000
  O   O4        1.0  0.06921  0.04246  0.97597  1.0000
  C   C17       1.0  0.07642  0.08771  0.98964  1.0000
  C   C18       1.0  0.05116  0.10025  0.03186  1.0000
  F   F1        1.0  0.07661  0.09131  0.06830  1.0000
  F   F2        1.0  0.04379  0.14497  0.03238  1.0000
  H   H1        1.0  0.97449  0.01747  0.07225  1.0000
  H   H2        1.0  0.94683  0.04672  0.11571  1.0000
  H   H3        1.0  0.92909  0.99245  0.09959  1.0000
  H   H4        1.0  0.92198  0.07712  0.04200  1.0000
  H   H5        1.0  0.87748  0.05010  0.06934  1.0000
  H   H6        1.0  0.86562  0.01714  0.92697  1.0000
  H   H7        1.0  0.84646  0.95908  0.87142  1.0000
  H   H8        1.0  0.89307  0.89107  0.86480  1.0000
  H   H9        1.0  0.95888  0.88098  0.91352  1.0000
  H   H10       1.0  0.01402  0.99847  0.96399  1.0000
  H   H11       1.0  0.05706  0.90310  0.03280  1.0000
  H   H12       1.0  0.12712  0.90946  0.07381  1.0000
  H   H13       1.0  0.14675  0.04208  0.02430  1.0000
  H   H14       1.0  0.06360  0.10828  0.96229  1.0000
  H   H15       1.0  0.11200  0.09550  0.99208  1.0000
  H   H16       1.0  0.01935  0.08294  0.03554  1.0000
