data_image0
_chemical_formula_structural       C2OCOC2NC2ONC2NC6NC2NC7H25
_chemical_formula_sum              "C24 O3 N5 H25"
_cell_length_a       30
_cell_length_b       30
_cell_length_c       30
_cell_angle_alpha    90
_cell_angle_beta     90
_cell_angle_gamma    90

_space_group_name_H-M_alt    "P 1"
_space_group_IT_number       1

loop_
  _space_group_symop_operation_xyz
  'x, y, z'

loop_
  _atom_site_type_symbol
  _atom_site_label
  _atom_site_symmetry_multiplicity
  _atom_site_fract_x
  _atom_site_fract_y
  _atom_site_fract_z
  _atom_site_occupancy
  C   C1        1.0  0.85053  0.87177  0.98533  1.0000
  C   C2        1.0  0.85538  0.91595  0.96113  1.0000
  O   O1        1.0  0.87852  0.94740  0.98882  1.0000
  C   C3        1.0  0.92367  0.94624  0.98652  1.0000
  O   O2        1.0  0.94649  0.92075  0.96437  1.0000
  C   C4        1.0  0.94276  0.98088  0.01556  1.0000
  C   C5        1.0  0.97100  0.96802  0.04751  1.0000
  N   N1        1.0  0.99040  0.99645  0.07827  1.0000
  C   C6        1.0  0.00779  0.97977  0.12157  1.0000
  C   C7        1.0  0.05881  0.98117  0.12344  1.0000
  O   O3        1.0  0.07895  0.99413  0.15679  1.0000
  N   N2        1.0  0.07969  0.96624  0.08547  1.0000
  C   C8        1.0  0.12766  0.96431  0.08162  1.0000
  C   C9        1.0  0.14207  0.98002  0.03659  1.0000
  N   N3        1.0  0.18086  0.97263  0.01745  1.0000
  C   C10       1.0  0.17901  0.99318  0.97655  1.0000
  C   C11       1.0  0.21090  0.99519  0.94238  1.0000
  C   C12       1.0  0.20019  0.01831  0.90326  1.0000
  C   C13       1.0  0.15874  0.03903  0.89829  1.0000
  C   C14       1.0  0.12674  0.03776  0.93224  1.0000
  C   C15       1.0  0.13821  0.01437  0.97075  1.0000
  N   N4        1.0  0.11568  0.00633  0.00976  1.0000
  C   C16       1.0  0.97784  0.04403  0.07803  1.0000
  C   C17       1.0  0.01937  0.07308  0.07093  1.0000
  N   N5        1.0  0.94562  0.05816  0.04410  1.0000
  C   C18       1.0  0.93155  0.02907  0.01568  1.0000
  C   C19       1.0  0.90140  0.04530  0.97981  1.0000
  C   C20       1.0  0.86354  0.06968  0.99186  1.0000
  C   C21       1.0  0.83512  0.08600  0.95892  1.0000
  C   C22       1.0  0.84477  0.07851  0.91400  1.0000
  C   C23       1.0  0.88288  0.05474  0.90193  1.0000
  C   C24       1.0  0.91149  0.03826  0.93476  1.0000
  H   H1        1.0  0.83225  0.84789  0.96505  1.0000
  H   H2        1.0  0.83284  0.87636  0.01685  1.0000
  H   H3        1.0  0.88300  0.85737  0.99361  1.0000
  H   H4        1.0  0.87214  0.91168  0.92889  1.0000
  H   H5        1.0  0.82232  0.93011  0.95431  1.0000
  H   H6        1.0  0.97967  0.93298  0.05159  1.0000
  H   H7        1.0  0.99529  0.00047  0.14917  1.0000
  H   H8        1.0  0.99692  0.94532  0.12776  1.0000
  H   H9        1.0  0.06029  0.95323  0.06111  1.0000
  H   H10       1.0  0.14367  0.98431  0.10763  1.0000
  H   H11       1.0  0.13739  0.92949  0.08626  1.0000
  H   H12       1.0  0.24299  0.97886  0.94660  1.0000
  H   H13       1.0  0.22434  0.01989  0.87639  1.0000
  H   H14       1.0  0.15116  0.05662  0.86751  1.0000
  H   H15       1.0  0.09460  0.05390  0.92833  1.0000
  H   H16       1.0  0.08484  0.01753  0.01791  1.0000
  H   H17       1.0  0.96338  0.05272  0.11060  1.0000
  H   H18       1.0  0.01069  0.10852  0.07361  1.0000
  H   H19       1.0  0.04541  0.06621  0.09552  1.0000
  H   H20       1.0  0.03347  0.06784  0.03751  1.0000
  H   H21       1.0  0.85601  0.07585  0.02695  1.0000
  H   H22       1.0  0.80543  0.10455  0.96826  1.0000
  H   H23       1.0  0.82249  0.09150  0.88853  1.0000
  H   H24       1.0  0.89031  0.04937  0.86705  1.0000
  H   H25       1.0  0.94146  0.02070  0.92495  1.0000
