data_image0
_chemical_formula_structural       C2OC6NC3ONC6NCOC6H21
_chemical_formula_sum              "C24 O3 N3 H21"
_cell_length_a       30
_cell_length_b       30
_cell_length_c       30
_cell_angle_alpha    90
_cell_angle_beta     90
_cell_angle_gamma    90

_space_group_name_H-M_alt    "P 1"
_space_group_IT_number       1

loop_
  _space_group_symop_operation_xyz
  'x, y, z'

loop_
  _atom_site_type_symbol
  _atom_site_label
  _atom_site_symmetry_multiplicity
  _atom_site_fract_x
  _atom_site_fract_y
  _atom_site_fract_z
  _atom_site_occupancy
  C   C1        1.0  0.96104  0.10695  0.00716  1.0000
  C   C2        1.0  0.92854  0.07453  0.98594  1.0000
  O   O1        1.0  0.95360  0.04511  0.95785  1.0000
  C   C3        1.0  0.92746  0.00954  0.94532  1.0000
  C   C4        1.0  0.90622  0.01170  0.90399  1.0000
  C   C5        1.0  0.88001  0.97609  0.88980  1.0000
  C   C6        1.0  0.87564  0.93836  0.91660  1.0000
  C   C7        1.0  0.89759  0.93604  0.95767  1.0000
  C   C8        1.0  0.92396  0.97153  0.97281  1.0000
  N   N1        1.0  0.94750  0.96929  0.01372  1.0000
  C   C9        1.0  0.99560  0.96174  0.00660  1.0000
  C   C10       1.0  0.02033  0.97414  0.04928  1.0000
  C   C11       1.0  0.07058  0.97439  0.03957  1.0000
  O   O2        1.0  0.09534  0.94437  0.05218  1.0000
  N   N2        1.0  0.08370  0.01177  0.01529  1.0000
  C   C12       1.0  0.12699  0.02249  0.00033  1.0000
  C   C13       1.0  0.16468  0.99645  0.00857  1.0000
  C   C14       1.0  0.20649  0.00942  0.99253  1.0000
  C   C15       1.0  0.21104  0.04860  0.96801  1.0000
  C   C16       1.0  0.17365  0.07494  0.95950  1.0000
  C   C17       1.0  0.17797  0.11525  0.93423  1.0000
  N   N3        1.0  0.18118  0.14791  0.91378  1.0000
  C   C18       1.0  0.13180  0.06188  0.97566  1.0000
  O   O3        1.0  0.00911  0.94348  0.08395  1.0000
  C   C19       1.0  0.96363  0.93875  0.08844  1.0000
  C   C20       1.0  0.94946  0.92032  0.12876  1.0000
  C   C21       1.0  0.90411  0.91557  0.13741  1.0000
  C   C22       1.0  0.87306  0.92948  0.10584  1.0000
  C   C23       1.0  0.88732  0.94740  0.06521  1.0000
  C   C24       1.0  0.93282  0.95127  0.05505  1.0000
  H   H1        1.0  0.97957  0.12530  0.98158  1.0000
  H   H2        1.0  0.94357  0.13078  0.02850  1.0000
  H   H3        1.0  0.98568  0.08901  0.02726  1.0000
  H   H4        1.0  0.90427  0.09290  0.96574  1.0000
  H   H5        1.0  0.91084  0.05640  0.01230  1.0000
  H   H6        1.0  0.91007  0.04097  0.88306  1.0000
  H   H7        1.0  0.86321  0.97759  0.85773  1.0000
  H   H8        1.0  0.85548  0.91041  0.90539  1.0000
  H   H9        1.0  0.89462  0.90582  0.97747  1.0000
  H   H10       1.0  0.00135  0.92652  0.99821  1.0000
  H   H11       1.0  0.00817  0.98147  0.97853  1.0000
  H   H12       1.0  0.01138  0.00783  0.06068  1.0000
  H   H13       1.0  0.05957  0.03410  0.00735  1.0000
  H   H14       1.0  0.16287  0.96568  0.02756  1.0000
  H   H15       1.0  0.23548  0.98872  0.99931  1.0000
  H   H16       1.0  0.24376  0.05829  0.95570  1.0000
  H   H17       1.0  0.10296  0.08276  0.96866  1.0000
  H   H18       1.0  0.97386  0.91018  0.15354  1.0000
  H   H19       1.0  0.89303  0.90151  0.16890  1.0000
  H   H20       1.0  0.83762  0.92648  0.11275  1.0000
  H   H21       1.0  0.86223  0.95851  0.04155  1.0000
