data_image0
_chemical_formula_structural       C2OC7N2COC2BrC2OH13
_chemical_formula_sum              "C14 O3 N2 Br1 H13"
_cell_length_a       30
_cell_length_b       30
_cell_length_c       30
_cell_angle_alpha    90
_cell_angle_beta     90
_cell_angle_gamma    90

_space_group_name_H-M_alt    "P 1"
_space_group_IT_number       1

loop_
  _space_group_symop_operation_xyz
  'x, y, z'

loop_
  _atom_site_type_symbol
  _atom_site_label
  _atom_site_symmetry_multiplicity
  _atom_site_fract_x
  _atom_site_fract_y
  _atom_site_fract_z
  _atom_site_occupancy
  C   C1        1.0  0.93539  0.10007  0.97770  1.0000
  C   C2        1.0  0.91721  0.05336  0.98451  1.0000
  O   O1        1.0  0.92462  0.04110  0.03007  1.0000
  C   C3        1.0  0.91438  0.99708  0.03648  1.0000
  C   C4        1.0  0.87019  0.98686  0.04739  1.0000
  C   C5        1.0  0.85769  0.94288  0.05577  1.0000
  C   C6        1.0  0.88940  0.90901  0.05377  1.0000
  C   C7        1.0  0.93372  0.91916  0.04367  1.0000
  C   C8        1.0  0.94660  0.96333  0.03519  1.0000
  C   C9        1.0  0.99444  0.97076  0.02531  1.0000
  N   N1        1.0  0.01065  0.00894  0.01333  1.0000
  N   N2        1.0  0.05518  0.01136  0.00331  1.0000
  C   C10       1.0  0.08025  0.97908  0.98111  1.0000
  O   O2        1.0  0.06672  0.94150  0.97204  1.0000
  C   C11       1.0  0.12436  0.99489  0.96916  1.0000
  C   C12       1.0  0.16006  0.97500  0.94819  1.0000
  Br  Br1       1.0  0.16528  0.91674  0.92625  1.0000
  C   C13       1.0  0.19468  0.00669  0.94535  1.0000
  C   C14       1.0  0.17824  0.04474  0.96486  1.0000
  O   O3        1.0  0.13584  0.03820  0.97937  1.0000
  H   H1        1.0  0.97109  0.10121  0.98521  1.0000
  H   H2        1.0  0.91902  0.12364  0.00026  1.0000
  H   H3        1.0  0.93025  0.11114  0.94335  1.0000
  H   H4        1.0  0.93410  0.03031  0.96169  1.0000
  H   H5        1.0  0.88138  0.05316  0.97728  1.0000
  H   H6        1.0  0.84557  0.01334  0.04957  1.0000
  H   H7        1.0  0.82328  0.93510  0.06407  1.0000
  H   H8        1.0  0.87972  0.87470  0.06031  1.0000
  H   H9        1.0  0.95800  0.89226  0.04246  1.0000
  H   H10       1.0  0.01590  0.94121  0.02966  1.0000
  H   H11       1.0  0.06748  0.04295  0.00250  1.0000
  H   H12       1.0  0.22748  0.00260  0.93099  1.0000
  H   H13       1.0  0.19183  0.07762  0.97074  1.0000
