data_image0
_chemical_formula_structural       C2OC3NCOC5ONCNC5SC3H27
_chemical_formula_sum              "C20 O3 N3 S1 H27"
_cell_length_a       30
_cell_length_b       30
_cell_length_c       30
_cell_angle_alpha    90
_cell_angle_beta     90
_cell_angle_gamma    90

_space_group_name_H-M_alt    "P 1"
_space_group_IT_number       1

loop_
  _space_group_symop_operation_xyz
  'x, y, z'

loop_
  _atom_site_type_symbol
  _atom_site_label
  _atom_site_symmetry_multiplicity
  _atom_site_fract_x
  _atom_site_fract_y
  _atom_site_fract_z
  _atom_site_occupancy
  C   C1        1.0  0.79726  0.98573  0.98425  1.0000
  C   C2        1.0  0.82080  0.01108  0.94716  1.0000
  O   O1        1.0  0.86633  0.01942  0.95845  1.0000
  C   C3        1.0  0.87237  0.05625  0.98853  1.0000
  C   C4        1.0  0.89657  0.09321  0.96342  1.0000
  C   C5        1.0  0.89906  0.03985  0.02899  1.0000
  N   N1        1.0  0.93981  0.01718  0.01613  1.0000
  C   C6        1.0  0.97234  0.00751  0.04684  1.0000
  O   O2        1.0  0.97311  0.02106  0.08527  1.0000
  C   C7        1.0  0.00800  0.97795  0.03027  1.0000
  C   C8        1.0  0.99912  0.93245  0.02511  1.0000
  C   C9        1.0  0.95465  0.91134  0.03410  1.0000
  C   C10       1.0  0.95936  0.86238  0.04632  1.0000
  C   C11       1.0  0.99054  0.83805  0.01518  1.0000
  O   O3        1.0  0.98562  0.79847  0.00591  1.0000
  N   N2        1.0  0.02656  0.86159  0.00055  1.0000
  C   C12       1.0  0.03323  0.90681  0.00769  1.0000
  N   N3        1.0  0.07328  0.92292  0.99573  1.0000
  C   C13       1.0  0.08181  0.96644  0.00202  1.0000
  C   C14       1.0  0.05009  0.99625  0.01962  1.0000
  C   C15       1.0  0.06177  0.04176  0.02505  1.0000
  C   C16       1.0  0.10392  0.05731  0.01328  1.0000
  C   C17       1.0  0.13436  0.02732  0.99594  1.0000
  S   S1        1.0  0.18717  0.04495  0.97997  1.0000
  C   C18       1.0  0.18051  0.08688  0.93952  1.0000
  C   C19       1.0  0.21265  0.07023  0.02631  1.0000
  C   C20       1.0  0.12363  0.98253  0.99040  1.0000
  H   H1        1.0  0.81538  0.95499  0.99224  1.0000
  H   H2        1.0  0.76310  0.97707  0.97443  1.0000
  H   H3        1.0  0.79581  0.00544  0.01492  1.0000
  H   H4        1.0  0.80353  0.04224  0.93902  1.0000
  H   H5        1.0  0.82089  0.99052  0.91698  1.0000
  H   H6        1.0  0.84030  0.06930  0.00036  1.0000
  H   H7        1.0  0.90314  0.12171  0.98518  1.0000
  H   H8        1.0  0.92819  0.08144  0.94951  1.0000
  H   H9        1.0  0.87634  0.10454  0.93524  1.0000
  H   H10       1.0  0.90707  0.06735  0.05167  1.0000
  H   H11       1.0  0.87933  0.01532  0.04757  1.0000
  H   H12       1.0  0.93900  0.00075  0.98657  1.0000
  H   H13       1.0  0.93727  0.92822  0.06139  1.0000
  H   H14       1.0  0.93413  0.91465  0.00402  1.0000
  H   H15       1.0  0.97283  0.85884  0.08011  1.0000
  H   H16       1.0  0.92663  0.84628  0.04547  1.0000
  H   H17       1.0  0.05066  0.84508  0.98378  1.0000
  H   H18       1.0  0.03799  0.06543  0.03895  1.0000
  H   H19       1.0  0.11219  0.09226  0.01784  1.0000
  H   H20       1.0  0.21232  0.01102  0.96417  1.0000
  H   H21       1.0  0.16532  0.11623  0.95475  1.0000
  H   H22       1.0  0.21326  0.09524  0.92621  1.0000
  H   H23       1.0  0.15933  0.07406  0.91286  1.0000
  H   H24       1.0  0.24703  0.07830  0.01745  1.0000
  H   H25       1.0  0.21230  0.04676  0.05407  1.0000
  H   H26       1.0  0.19464  0.10054  0.03516  1.0000
  H   H27       1.0  0.14806  0.95948  0.97679  1.0000
