data_image0
_chemical_formula_structural       C2OCOC5ONC6H25
_chemical_formula_sum              "C14 O3 N1 H25"
_cell_length_a       30
_cell_length_b       30
_cell_length_c       30
_cell_angle_alpha    90
_cell_angle_beta     90
_cell_angle_gamma    90

_space_group_name_H-M_alt    "P 1"
_space_group_IT_number       1

loop_
  _space_group_symop_operation_xyz
  'x, y, z'

loop_
  _atom_site_type_symbol
  _atom_site_label
  _atom_site_symmetry_multiplicity
  _atom_site_fract_x
  _atom_site_fract_y
  _atom_site_fract_z
  _atom_site_occupancy
  C   C1        1.0  0.16323  0.05977  0.90210  1.0000
  C   C2        1.0  0.15044  0.02124  0.93217  1.0000
  O   O1        1.0  0.10748  0.03049  0.95087  1.0000
  C   C3        1.0  0.09271  0.99882  0.97962  1.0000
  O   O2        1.0  0.11235  0.96485  0.99003  1.0000
  C   C4        1.0  0.04838  0.01281  0.99567  1.0000
  C   C5        1.0  0.02366  0.98947  0.02485  1.0000
  C   C6        1.0  0.03365  0.94608  0.04764  1.0000
  C   C7        1.0  0.05902  0.95267  0.09105  1.0000
  C   C8        1.0  0.98056  0.01073  0.03678  1.0000
  O   O3        1.0  0.98021  0.03642  0.06866  1.0000
  N   N1        1.0  0.94362  0.00080  0.01033  1.0000
  C   C9        1.0  0.90070  0.02299  0.02060  1.0000
  C   C10       1.0  0.90297  0.07363  0.01457  1.0000
  C   C11       1.0  0.88252  0.01026  0.06656  1.0000
  C   C12       1.0  0.94474  0.96919  0.97225  1.0000
  C   C13       1.0  0.93581  0.99278  0.92794  1.0000
  C   C14       1.0  0.91338  0.92956  0.97921  1.0000
  H   H1        1.0  0.13824  0.06451  0.87591  1.0000
  H   H2        1.0  0.16475  0.09092  0.92108  1.0000
  H   H3        1.0  0.19567  0.05387  0.88656  1.0000
  H   H4        1.0  0.14888  0.99038  0.91268  1.0000
  H   H5        1.0  0.17512  0.01770  0.95887  1.0000
  H   H6        1.0  0.03646  0.04449  0.98278  1.0000
  H   H7        1.0  0.05227  0.92371  0.02558  1.0000
  H   H8        1.0  0.00236  0.92849  0.05481  1.0000
  H   H9        1.0  0.06579  0.92040  0.10666  1.0000
  H   H10       1.0  0.09099  0.96936  0.08541  1.0000
  H   H11       1.0  0.03976  0.97271  0.11472  1.0000
  H   H12       1.0  0.87607  0.01111  0.99638  1.0000
  H   H13       1.0  0.92409  0.08973  0.03957  1.0000
  H   H14       1.0  0.91626  0.08215  0.98164  1.0000
  H   H15       1.0  0.86965  0.08830  0.01737  1.0000
  H   H16       1.0  0.88131  0.97398  0.07040  1.0000
  H   H17       1.0  0.84862  0.02313  0.07083  1.0000
  H   H18       1.0  0.90277  0.02364  0.09376  1.0000
  H   H19       1.0  0.97809  0.95485  0.96943  1.0000
  H   H20       1.0  0.90171  0.00563  0.92585  1.0000
  H   H21       1.0  0.95857  0.02098  0.92355  1.0000
  H   H22       1.0  0.94070  0.96985  0.89996  1.0000
  H   H23       1.0  0.92041  0.91299  0.01097  1.0000
  H   H24       1.0  0.87832  0.93950  0.97937  1.0000
  H   H25       1.0  0.91771  0.90503  0.95253  1.0000
