data_image0
_chemical_formula_structural       C2OCONC3ONC3OC4ClSH17
_chemical_formula_sum              "C13 O4 N2 Cl1 S1 H17"
_cell_length_a       30
_cell_length_b       30
_cell_length_c       30
_cell_angle_alpha    90
_cell_angle_beta     90
_cell_angle_gamma    90

_space_group_name_H-M_alt    "P 1"
_space_group_IT_number       1

loop_
  _space_group_symop_operation_xyz
  'x, y, z'

loop_
  _atom_site_type_symbol
  _atom_site_label
  _atom_site_symmetry_multiplicity
  _atom_site_fract_x
  _atom_site_fract_y
  _atom_site_fract_z
  _atom_site_occupancy
  C   C1        1.0  0.17634  0.02111  0.09695  1.0000
  C   C2        1.0  0.14967  0.97817  0.09872  1.0000
  O   O1        1.0  0.11102  0.98157  0.07079  1.0000
  C   C3        1.0  0.11708  0.97048  0.02743  1.0000
  O   O2        1.0  0.15224  0.95860  0.01069  1.0000
  N   N1        1.0  0.07769  0.97526  0.00538  1.0000
  C   C4        1.0  0.07510  0.97501  0.95722  1.0000
  C   C5        1.0  0.03009  0.95867  0.94023  1.0000
  C   C6        1.0  0.99244  0.99099  0.95037  1.0000
  O   O3        1.0  0.99879  0.02562  0.97155  1.0000
  N   N2        1.0  0.95022  0.97973  0.93463  1.0000
  C   C7        1.0  0.93895  0.93531  0.91854  1.0000
  C   C8        1.0  0.91321  0.00821  0.94925  1.0000
  C   C9        1.0  0.89557  0.99656  0.99604  1.0000
  O   O4        1.0  0.90004  0.95851  0.01102  1.0000
  C   C10       1.0  0.87179  0.03188  0.01980  1.0000
  C   C11       1.0  0.86150  0.07504  0.00684  1.0000
  C   C12       1.0  0.83755  0.09900  0.04034  1.0000
  C   C13       1.0  0.83055  0.07309  0.07725  1.0000
  Cl  Cl1       1.0  0.80322  0.08853  0.12509  1.0000
  S   S1        1.0  0.85185  0.02121  0.07260  1.0000
  H   H1        1.0  0.15543  0.04957  0.10616  1.0000
  H   H2        1.0  0.18868  0.02749  0.06321  1.0000
  H   H3        1.0  0.20482  0.01959  0.11966  1.0000
  H   H4        1.0  0.13776  0.97256  0.13276  1.0000
  H   H5        1.0  0.17017  0.94931  0.08967  1.0000
  H   H6        1.0  0.05437  0.99274  0.02249  1.0000
  H   H7        1.0  0.08207  0.00900  0.94581  1.0000
  H   H8        1.0  0.10149  0.95345  0.94407  1.0000
  H   H9        1.0  0.02227  0.92630  0.95523  1.0000
  H   H10       1.0  0.03225  0.95489  0.90397  1.0000
  H   H11       1.0  0.90802  0.93665  0.89929  1.0000
  H   H12       1.0  0.96524  0.92236  0.89694  1.0000
  H   H13       1.0  0.93502  0.91282  0.94693  1.0000
  H   H14       1.0  0.88583  0.00527  0.92527  1.0000
  H   H15       1.0  0.92484  0.04278  0.94880  1.0000
  H   H16       1.0  0.87051  0.08954  0.97501  1.0000
  H   H17       1.0  0.82633  0.13317  0.03728  1.0000
