data_image0
_chemical_formula_structural       C2OCOC2NC4NC3NC4H25
_chemical_formula_sum              "C16 O2 N3 H25"
_cell_length_a       30
_cell_length_b       30
_cell_length_c       30
_cell_angle_alpha    90
_cell_angle_beta     90
_cell_angle_gamma    90

_space_group_name_H-M_alt    "P 1"
_space_group_IT_number       1

loop_
  _space_group_symop_operation_xyz
  'x, y, z'

loop_
  _atom_site_type_symbol
  _atom_site_label
  _atom_site_symmetry_multiplicity
  _atom_site_fract_x
  _atom_site_fract_y
  _atom_site_fract_z
  _atom_site_occupancy
  C   C1        1.0  0.15483  0.94174  0.00829  1.0000
  C   C2        1.0  0.13090  0.98306  0.02495  1.0000
  O   O1        1.0  0.08392  0.97507  0.02709  1.0000
  C   C3        1.0  0.06095  0.98362  0.98903  1.0000
  O   O2        1.0  0.07673  0.99456  0.95301  1.0000
  C   C4        1.0  0.01317  0.97317  0.99592  1.0000
  C   C5        1.0  0.99898  0.93349  0.97912  1.0000
  N   N1        1.0  0.02550  0.90423  0.95397  1.0000
  C   C6        1.0  0.95067  0.91783  0.98861  1.0000
  C   C7        1.0  0.92131  0.91760  0.94737  1.0000
  C   C8        1.0  0.87224  0.92956  0.94691  1.0000
  C   C9        1.0  0.90560  0.96016  0.92538  1.0000
  N   N2        1.0  0.93126  0.94352  0.02503  1.0000
  C   C10       1.0  0.94477  0.98607  0.03491  1.0000
  C   C11       1.0  0.98356  0.00364  0.02075  1.0000
  C   C12       1.0  0.99639  0.05252  0.02813  1.0000
  N   N3        1.0  0.03537  0.05545  0.05762  1.0000
  C   C13       1.0  0.95875  0.08244  0.04722  1.0000
  C   C14       1.0  0.97233  0.13036  0.03674  1.0000
  C   C15       1.0  0.00116  0.12745  0.99498  1.0000
  C   C16       1.0  0.00555  0.07779  0.98416  1.0000
  H   H1        1.0  0.19093  0.94680  0.00832  1.0000
  H   H2        1.0  0.14427  0.93325  0.97441  1.0000
  H   H3        1.0  0.14694  0.91300  0.02937  1.0000
  H   H4        1.0  0.13856  0.01217  0.00424  1.0000
  H   H5        1.0  0.14200  0.99083  0.05884  1.0000
  H   H6        1.0  0.00766  0.88594  0.93169  1.0000
  H   H7        1.0  0.05136  0.92012  0.93843  1.0000
  H   H8        1.0  0.95263  0.88327  0.00051  1.0000
  H   H9        1.0  0.93123  0.89073  0.92522  1.0000
  H   H10       1.0  0.85587  0.94144  0.97678  1.0000
  H   H11       1.0  0.85051  0.91045  0.92522  1.0000
  H   H12       1.0  0.91248  0.99173  0.94154  1.0000
  H   H13       1.0  0.90648  0.96177  0.88929  1.0000
  H   H14       1.0  0.89950  0.93549  0.03319  1.0000
  H   H15       1.0  0.92058  0.00432  0.05465  1.0000
  H   H16       1.0  0.04279  0.08770  0.06492  1.0000
  H   H17       1.0  0.02810  0.04031  0.08716  1.0000
  H   H18       1.0  0.95327  0.07760  0.08302  1.0000
  H   H19       1.0  0.92698  0.07586  0.03027  1.0000
  H   H20       1.0  0.94312  0.15164  0.03162  1.0000
  H   H21       1.0  0.99149  0.14472  0.06433  1.0000
  H   H22       1.0  0.98631  0.14562  0.96703  1.0000
  H   H23       1.0  0.03396  0.14223  0.00135  1.0000
  H   H24       1.0  0.03838  0.07093  0.96984  1.0000
  H   H25       1.0  0.98068  0.06876  0.95886  1.0000
