data_image0
_chemical_formula_structural       C2OCONC6NCSH12
_chemical_formula_sum              "C10 O2 N2 S1 H12"
_cell_length_a       30
_cell_length_b       30
_cell_length_c       30
_cell_angle_alpha    90
_cell_angle_beta     90
_cell_angle_gamma    90

_space_group_name_H-M_alt    "P 1"
_space_group_IT_number       1

loop_
  _space_group_symop_operation_xyz
  'x, y, z'

loop_
  _atom_site_type_symbol
  _atom_site_label
  _atom_site_symmetry_multiplicity
  _atom_site_fract_x
  _atom_site_fract_y
  _atom_site_fract_z
  _atom_site_occupancy
  C   C1        1.0  0.87840  0.99525  0.92460  1.0000
  C   C2        1.0  0.89733  0.00168  0.97102  1.0000
  O   O1        1.0  0.93818  0.97713  0.97395  1.0000
  C   C3        1.0  0.95903  0.97996  0.01413  1.0000
  O   O2        1.0  0.94454  0.00170  0.04556  1.0000
  N   N1        1.0  0.99841  0.95598  0.01540  1.0000
  C   C4        1.0  0.01689  0.93431  0.97617  1.0000
  C   C5        1.0  0.02677  0.96006  0.05458  1.0000
  C   C6        1.0  0.06012  0.99682  0.04803  1.0000
  C   C7        1.0  0.05293  0.04236  0.04912  1.0000
  C   C8        1.0  0.09269  0.06724  0.04149  1.0000
  C   C9        1.0  0.09548  0.11488  0.04042  1.0000
  N   N2        1.0  0.09800  0.15347  0.03946  1.0000
  C   C10       1.0  0.12902  0.03990  0.03514  1.0000
  S   S1        1.0  0.11513  0.98468  0.03841  1.0000
  H   H1        1.0  0.90204  0.00693  0.89936  1.0000
  H   H2        1.0  0.84706  0.01343  0.92070  1.0000
  H   H3        1.0  0.87242  0.95986  0.91796  1.0000
  H   H4        1.0  0.90380  0.03715  0.97687  1.0000
  H   H5        1.0  0.87362  0.98919  0.99583  1.0000
  H   H6        1.0  0.99067  0.92350  0.95330  1.0000
  H   H7        1.0  0.03862  0.95787  0.95880  1.0000
  H   H8        1.0  0.03603  0.90498  0.98632  1.0000
  H   H9        1.0  0.00647  0.96746  0.08406  1.0000
  H   H10       1.0  0.04279  0.92780  0.06071  1.0000
  H   H11       1.0  0.02034  0.05694  0.05502  1.0000
  H   H12       1.0  0.16322  0.04947  0.02878  1.0000
