data_image0
_chemical_formula_structural       C2OC9ONC2ONC4H22
_chemical_formula_sum              "C17 O3 N2 H22"
_cell_length_a       30
_cell_length_b       30
_cell_length_c       30
_cell_angle_alpha    90
_cell_angle_beta     90
_cell_angle_gamma    90

_space_group_name_H-M_alt    "P 1"
_space_group_IT_number       1

loop_
  _space_group_symop_operation_xyz
  'x, y, z'

loop_
  _atom_site_type_symbol
  _atom_site_label
  _atom_site_symmetry_multiplicity
  _atom_site_fract_x
  _atom_site_fract_y
  _atom_site_fract_z
  _atom_site_occupancy
  C   C1        1.0  0.20908  0.00229  0.93091  1.0000
  C   C2        1.0  0.18462  0.00080  0.97517  1.0000
  O   O1        1.0  0.13998  0.01538  0.96763  1.0000
  C   C3        1.0  0.11322  0.02164  0.00420  1.0000
  C   C4        1.0  0.12435  0.00831  0.04753  1.0000
  C   C5        1.0  0.09497  0.01588  0.08283  1.0000
  C   C6        1.0  0.05440  0.03698  0.07514  1.0000
  C   C7        1.0  0.04302  0.05049  0.03218  1.0000
  C   C8        1.0  0.07169  0.04220  0.99627  1.0000
  C   C9        1.0  0.05933  0.05686  0.95117  1.0000
  C   C10       1.0  0.02200  0.04901  0.92774  1.0000
  C   C11       1.0  0.98149  0.02253  0.93802  1.0000
  O   O2        1.0  0.94615  0.03215  0.91977  1.0000
  N   N1        1.0  0.98647  0.98683  0.96579  1.0000
  C   C12       1.0  0.94797  0.96117  0.97977  1.0000
  C   C13       1.0  0.92562  0.98132  0.02121  1.0000
  O   O3        1.0  0.94717  0.00206  0.04946  1.0000
  N   N2        1.0  0.88063  0.97337  0.02653  1.0000
  C   C14       1.0  0.85122  0.95009  0.99585  1.0000
  C   C15       1.0  0.80735  0.94611  0.02106  1.0000
  C   C16       1.0  0.80731  0.98774  0.05010  1.0000
  C   C17       1.0  0.85596  0.99199  0.06381  1.0000
  H   H1        1.0  0.19313  0.98002  0.90675  1.0000
  H   H2        1.0  0.20799  0.03591  0.91683  1.0000
  H   H3        1.0  0.24396  0.99234  0.93486  1.0000
  H   H4        1.0  0.18455  0.96647  0.98764  1.0000
  H   H5        1.0  0.20161  0.02284  0.99886  1.0000
  H   H6        1.0  0.15551  0.99163  0.05492  1.0000
  H   H7        1.0  0.10364  0.00502  0.11634  1.0000
  H   H8        1.0  0.03123  0.04269  0.10242  1.0000
  H   H9        1.0  0.01103  0.06685  0.02706  1.0000
  H   H10       1.0  0.08497  0.07715  0.93535  1.0000
  H   H11       1.0  0.01915  0.06478  0.89519  1.0000
  H   H12       1.0  0.01495  0.98345  0.98346  1.0000
  H   H13       1.0  0.92465  0.95902  0.95191  1.0000
  H   H14       1.0  0.95950  0.92765  0.98828  1.0000
  H   H15       1.0  0.86511  0.91768  0.98659  1.0000
  H   H16       1.0  0.84749  0.97066  0.96593  1.0000
  H   H17       1.0  0.80769  0.91630  0.04221  1.0000
  H   H18       1.0  0.77852  0.94409  0.99889  1.0000
  H   H19       1.0  0.79746  0.01667  0.03011  1.0000
  H   H20       1.0  0.78478  0.98531  0.07861  1.0000
  H   H21       1.0  0.86332  0.97170  0.09325  1.0000
  H   H22       1.0  0.86578  0.02655  0.07026  1.0000
