data_image0
_chemical_formula_structural       C2OC6ONC4N2C9OH21
_chemical_formula_sum              "C21 O3 N3 H21"
_cell_length_a       30
_cell_length_b       30
_cell_length_c       30
_cell_angle_alpha    90
_cell_angle_beta     90
_cell_angle_gamma    90

_space_group_name_H-M_alt    "P 1"
_space_group_IT_number       1

loop_
  _space_group_symop_operation_xyz
  'x, y, z'

loop_
  _atom_site_type_symbol
  _atom_site_label
  _atom_site_symmetry_multiplicity
  _atom_site_fract_x
  _atom_site_fract_y
  _atom_site_fract_z
  _atom_site_occupancy
  C   C1        1.0  0.22106  0.93663  0.99500  1.0000
  C   C2        1.0  0.17412  0.95408  0.98771  1.0000
  O   O1        1.0  0.16996  0.99516  0.01113  1.0000
  C   C3        1.0  0.12987  0.01691  0.00916  1.0000
  C   C4        1.0  0.09237  0.00198  0.98579  1.0000
  C   C5        1.0  0.05228  0.02649  0.98589  1.0000
  C   C6        1.0  0.01254  0.00914  0.95978  1.0000
  C   C7        1.0  0.99859  0.04160  0.92274  1.0000
  C   C8        1.0  0.95119  0.03503  0.90602  1.0000
  O   O2        1.0  0.94029  0.04549  0.86787  1.0000
  N   N1        1.0  0.91947  0.02077  0.93574  1.0000
  C   C9        1.0  0.93142  0.00505  0.97719  1.0000
  C   C10       1.0  0.97493  0.00058  0.99124  1.0000
  C   C11       1.0  0.97148  0.98537  0.03576  1.0000
  C   C12       1.0  0.00718  0.97277  0.06769  1.0000
  N   N2        1.0  0.92894  0.98317  0.04899  1.0000
  N   N3        1.0  0.90412  0.99102  0.01181  1.0000
  C   C13       1.0  0.85720  0.98378  0.01313  1.0000
  C   C14       1.0  0.83562  0.98310  0.05470  1.0000
  C   C15       1.0  0.78965  0.97631  0.05734  1.0000
  C   C16       1.0  0.76492  0.96951  0.01866  1.0000
  C   C17       1.0  0.78620  0.96898  0.97738  1.0000
  C   C18       1.0  0.83223  0.97584  0.97450  1.0000
  C   C19       1.0  0.05076  0.06684  0.00966  1.0000
  C   C20       1.0  0.08795  0.08209  0.03303  1.0000
  C   C21       1.0  0.12712  0.05714  0.03270  1.0000
  O   O3        1.0  0.16361  0.07203  0.05574  1.0000
  H   H1        1.0  0.24573  0.96068  0.98295  1.0000
  H   H2        1.0  0.22754  0.93168  0.03058  1.0000
  H   H3        1.0  0.22600  0.90497  0.97762  1.0000
  H   H4        1.0  0.16878  0.95926  0.95194  1.0000
  H   H5        1.0  0.15020  0.92964  0.00058  1.0000
  H   H6        1.0  0.09353  0.97096  0.96719  1.0000
  H   H7        1.0  0.02090  0.97706  0.94420  1.0000
  H   H8        1.0  0.02150  0.03819  0.89446  1.0000
  H   H9        1.0  0.00039  0.07645  0.93370  1.0000
  H   H10       1.0  0.88747  0.02279  0.92542  1.0000
  H   H11       1.0  0.02268  0.00247  0.08207  1.0000
  H   H12       1.0  0.03284  0.95273  0.05126  1.0000
  H   H13       1.0  0.99382  0.95279  0.09519  1.0000
  H   H14       1.0  0.85424  0.98837  0.08542  1.0000
  H   H15       1.0  0.77325  0.97624  0.08966  1.0000
  H   H16       1.0  0.72916  0.96404  0.02075  1.0000
  H   H17       1.0  0.76695  0.96252  0.94733  1.0000
  H   H18       1.0  0.84749  0.97232  0.94195  1.0000
  H   H19       1.0  0.02031  0.08658  0.01057  1.0000
  H   H20       1.0  0.08574  0.11325  0.05129  1.0000
  H   H21       1.0  0.15645  0.10016  0.06992  1.0000
