data_image0
_chemical_formula_structural       C2OC12NCOC3FC4FCOH31
_chemical_formula_sum              "C23 O3 N1 F2 H31"
_cell_length_a       30
_cell_length_b       30
_cell_length_c       30
_cell_angle_alpha    90
_cell_angle_beta     90
_cell_angle_gamma    90

_space_group_name_H-M_alt    "P 1"
_space_group_IT_number       1

loop_
  _space_group_symop_operation_xyz
  'x, y, z'

loop_
  _atom_site_type_symbol
  _atom_site_label
  _atom_site_symmetry_multiplicity
  _atom_site_fract_x
  _atom_site_fract_y
  _atom_site_fract_z
  _atom_site_occupancy
  C   C1        1.0  0.86186  0.12851  0.97647  1.0000
  C   C2        1.0  0.89308  0.09195  0.96093  1.0000
  O   O1        1.0  0.88318  0.05172  0.98419  1.0000
  C   C3        1.0  0.91086  0.04163  0.02239  1.0000
  C   C4        1.0  0.95773  0.02292  0.01250  1.0000
  C   C5        1.0  0.93946  0.97475  0.01893  1.0000
  C   C6        1.0  0.92178  0.95143  0.97663  1.0000
  C   C7        1.0  0.91872  0.90196  0.98895  1.0000
  C   C8        1.0  0.93360  0.89853  0.03745  1.0000
  C   C9        1.0  0.96560  0.93815  0.04410  1.0000
  C   C10       1.0  0.01306  0.92891  0.02485  1.0000
  C   C11       1.0  0.03326  0.88570  0.04511  1.0000
  C   C12       1.0  0.08419  0.88644  0.04535  1.0000
  C   C13       1.0  0.10233  0.92616  0.07191  1.0000
  C   C14       1.0  0.06892  0.96455  0.07432  1.0000
  N   N1        1.0  0.04370  0.96683  0.03274  1.0000
  C   C15       1.0  0.05792  0.99198  0.99601  1.0000
  O   O2        1.0  0.04417  0.98462  0.95801  1.0000
  C   C16       1.0  0.09048  0.02984  0.00555  1.0000
  C   C17       1.0  0.09658  0.06084  0.96661  1.0000
  C   C18       1.0  0.06645  0.09537  0.95866  1.0000
  F   F1        1.0  0.03240  0.10207  0.98685  1.0000
  C   C19       1.0  0.07100  0.12353  0.92199  1.0000
  C   C20       1.0  0.10614  0.11718  0.89224  1.0000
  C   C21       1.0  0.13640  0.08265  0.89948  1.0000
  C   C22       1.0  0.13133  0.05482  0.93634  1.0000
  F   F2        1.0  0.16087  0.02189  0.94267  1.0000
  C   C23       1.0  0.90059  0.99693  0.04672  1.0000
  O   O3        1.0  0.90558  0.99752  0.09479  1.0000
  H   H1        1.0  0.86804  0.15946  0.95823  1.0000
  H   H2        1.0  0.82708  0.11865  0.97150  1.0000
  H   H3        1.0  0.86609  0.13489  0.01214  1.0000
  H   H4        1.0  0.88813  0.08565  0.92535  1.0000
  H   H5        1.0  0.92793  0.10167  0.96586  1.0000
  H   H6        1.0  0.91144  0.07019  0.04523  1.0000
  H   H7        1.0  0.98221  0.03355  0.03744  1.0000
  H   H8        1.0  0.97069  0.03060  0.97933  1.0000
  H   H9        1.0  0.88945  0.96426  0.96558  1.0000
  H   H10       1.0  0.94519  0.95566  0.94888  1.0000
  H   H11       1.0  0.88486  0.88908  0.98455  1.0000
  H   H12       1.0  0.94065  0.88235  0.96728  1.0000
  H   H13       1.0  0.94788  0.86593  0.04516  1.0000
  H   H14       1.0  0.90443  0.90262  0.05915  1.0000
  H   H15       1.0  0.96876  0.94582  0.07965  1.0000
  H   H16       1.0  0.01047  0.92350  0.98884  1.0000
  H   H17       1.0  0.02170  0.88122  0.07955  1.0000
  H   H18       1.0  0.02161  0.85666  0.02624  1.0000
  H   H19       1.0  0.09733  0.85529  0.05918  1.0000
  H   H20       1.0  0.09621  0.88844  0.01086  1.0000
  H   H21       1.0  0.11104  0.91582  0.10585  1.0000
  H   H22       1.0  0.13336  0.93745  0.05623  1.0000
  H   H23       1.0  0.08625  0.99569  0.08171  1.0000
  H   H24       1.0  0.04516  0.95918  0.10157  1.0000
  H   H25       1.0  0.12269  0.01551  0.01509  1.0000
  H   H26       1.0  0.07821  0.04940  0.03388  1.0000
  H   H27       1.0  0.04698  0.15009  0.91679  1.0000
  H   H28       1.0  0.10980  0.13887  0.86345  1.0000
  H   H29       1.0  0.16383  0.07702  0.87654  1.0000
  H   H30       1.0  0.86747  0.98365  0.03888  1.0000
  H   H31       1.0  0.93379  0.01243  0.10041  1.0000
