data_image0
_chemical_formula_structural       C2OC5NCONC14FH25
_chemical_formula_sum              "C22 O2 N2 F1 H25"
_cell_length_a       30
_cell_length_b       30
_cell_length_c       30
_cell_angle_alpha    90
_cell_angle_beta     90
_cell_angle_gamma    90

_space_group_name_H-M_alt    "P 1"
_space_group_IT_number       1

loop_
  _space_group_symop_operation_xyz
  'x, y, z'

loop_
  _atom_site_type_symbol
  _atom_site_label
  _atom_site_symmetry_multiplicity
  _atom_site_fract_x
  _atom_site_fract_y
  _atom_site_fract_z
  _atom_site_occupancy
  C   C1        1.0  0.27529  0.07520  0.95353  1.0000
  C   C2        1.0  0.23713  0.04408  0.94179  1.0000
  O   O1        1.0  0.21959  0.02641  0.98229  1.0000
  C   C3        1.0  0.18257  0.99994  0.97928  1.0000
  C   C4        1.0  0.16466  0.98304  0.93976  1.0000
  C   C5        1.0  0.12665  0.95590  0.94089  1.0000
  C   C6        1.0  0.10604  0.94511  0.98149  1.0000
  C   C7        1.0  0.06462  0.91671  0.98266  1.0000
  N   N1        1.0  0.02501  0.94321  0.97583  1.0000
  C   C8        1.0  0.00370  0.96303  0.01113  1.0000
  O   O2        1.0  0.01392  0.95774  0.05027  1.0000
  N   N2        1.0  0.96963  0.98975  0.99638  1.0000
  C   C9        1.0  0.94078  0.01193  0.02815  1.0000
  C   C10       1.0  0.91953  0.05469  0.00799  1.0000
  C   C11       1.0  0.87743  0.03884  0.98357  1.0000
  C   C12       1.0  0.83901  0.07164  0.97854  1.0000
  C   C13       1.0  0.79740  0.04593  0.96290  1.0000
  C   C14       1.0  0.78251  0.00962  0.99614  1.0000
  C   C15       1.0  0.82056  0.98533  0.01808  1.0000
  C   C16       1.0  0.81454  0.94916  0.04677  1.0000
  C   C17       1.0  0.85106  0.93066  0.06988  1.0000
  C   C18       1.0  0.89394  0.94863  0.06557  1.0000
  C   C19       1.0  0.89969  0.98466  0.03742  1.0000
  C   C20       1.0  0.86359  0.00133  0.01332  1.0000
  C   C21       1.0  0.12396  0.96232  0.02102  1.0000
  C   C22       1.0  0.16184  0.98916  0.01970  1.0000
  F   F1        1.0  0.17809  0.00499  0.05824  1.0000
  H   H1        1.0  0.26370  0.10205  0.97550  1.0000
  H   H2        1.0  0.30154  0.05723  0.97152  1.0000
  H   H3        1.0  0.28966  0.08996  0.92341  1.0000
  H   H4        1.0  0.21135  0.06297  0.92400  1.0000
  H   H5        1.0  0.24984  0.01712  0.92062  1.0000
  H   H6        1.0  0.17945  0.99027  0.90755  1.0000
  H   H7        1.0  0.11328  0.94330  0.90979  1.0000
  H   H8        1.0  0.06586  0.89197  0.95583  1.0000
  H   H9        1.0  0.06232  0.89833  0.01415  1.0000
  H   H10       1.0  0.02296  0.96000  0.94674  1.0000
  H   H11       1.0  0.95426  0.97775  0.96906  1.0000
  H   H12       1.0  0.95894  0.02003  0.05878  1.0000
  H   H13       1.0  0.94225  0.07274  0.98588  1.0000
  H   H14       1.0  0.91028  0.07740  0.03517  1.0000
  H   H15       1.0  0.88653  0.02510  0.95088  1.0000
  H   H16       1.0  0.83169  0.08844  0.01023  1.0000
  H   H17       1.0  0.84772  0.09748  0.95423  1.0000
  H   H18       1.0  0.80478  0.03021  0.93070  1.0000
  H   H19       1.0  0.76982  0.06909  0.95707  1.0000
  H   H20       1.0  0.76283  0.02559  0.02253  1.0000
  H   H21       1.0  0.76072  0.98585  0.97896  1.0000
  H   H22       1.0  0.78144  0.93536  0.05208  1.0000
  H   H23       1.0  0.84567  0.90251  0.09218  1.0000
  H   H24       1.0  0.92182  0.93497  0.08429  1.0000
  H   H25       1.0  0.10854  0.95529  0.05305  1.0000
