data_image0
_chemical_formula_structural       C2OC2OC6NC2FH18
_chemical_formula_sum              "C12 O2 N1 F1 H18"
_cell_length_a       30
_cell_length_b       30
_cell_length_c       30
_cell_angle_alpha    90
_cell_angle_beta     90
_cell_angle_gamma    90

_space_group_name_H-M_alt    "P 1"
_space_group_IT_number       1

loop_
  _space_group_symop_operation_xyz
  'x, y, z'

loop_
  _atom_site_type_symbol
  _atom_site_label
  _atom_site_symmetry_multiplicity
  _atom_site_fract_x
  _atom_site_fract_y
  _atom_site_fract_z
  _atom_site_occupancy
  C   C1        1.0  0.15314  0.96307  0.02881  1.0000
  C   C2        1.0  0.14683  0.98767  0.98503  1.0000
  O   O1        1.0  0.14326  0.03451  0.99225  1.0000
  C   C3        1.0  0.09951  0.04929  0.00379  1.0000
  C   C4        1.0  0.07100  0.05748  0.96233  1.0000
  O   O2        1.0  0.02770  0.07334  0.97394  1.0000
  C   C5        1.0  0.99481  0.04315  0.98306  1.0000
  C   C6        1.0  0.99956  0.99698  0.98427  1.0000
  C   C7        1.0  0.96288  0.96984  0.99436  1.0000
  C   C8        1.0  0.92067  0.98801  0.00368  1.0000
  C   C9        1.0  0.88230  0.95662  0.01387  1.0000
  C   C10       1.0  0.84210  0.97789  0.03707  1.0000
  N   N1        1.0  0.86775  0.93461  0.97281  1.0000
  C   C11       1.0  0.91617  0.03440  0.00206  1.0000
  C   C12       1.0  0.95283  0.06125  0.99205  1.0000
  F   F1        1.0  0.94691  0.10559  0.99113  1.0000
  H   H1        1.0  0.12388  0.96646  0.05031  1.0000
  H   H2        1.0  0.15896  0.92757  0.02288  1.0000
  H   H3        1.0  0.18153  0.97675  0.04722  1.0000
  H   H4        1.0  0.11800  0.97481  0.96671  1.0000
  H   H5        1.0  0.17629  0.98234  0.96416  1.0000
  H   H6        1.0  0.10311  0.08082  0.02189  1.0000
  H   H7        1.0  0.08343  0.02624  0.02708  1.0000
  H   H8        1.0  0.06972  0.02879  0.93976  1.0000
  H   H9        1.0  0.08694  0.08382  0.94260  1.0000
  H   H10       1.0  0.03108  0.98064  0.97754  1.0000
  H   H11       1.0  0.96721  0.93376  0.99456  1.0000
  H   H12       1.0  0.89505  0.93087  0.03653  1.0000
  H   H13       1.0  0.85224  0.99500  0.06770  1.0000
  H   H14       1.0  0.81758  0.95243  0.04633  1.0000
  H   H15       1.0  0.82511  0.00214  0.01568  1.0000
  H   H16       1.0  0.84095  0.91484  0.97938  1.0000
  H   H17       1.0  0.85690  0.95819  0.95087  1.0000
  H   H18       1.0  0.88457  0.05083  0.00833  1.0000
