data_image0
_chemical_formula_structural       C2OCOC3ONC4O2C2H19
_chemical_formula_sum              "C12 O5 N1 H19"
_cell_length_a       30
_cell_length_b       30
_cell_length_c       30
_cell_angle_alpha    90
_cell_angle_beta     90
_cell_angle_gamma    90

_space_group_name_H-M_alt    "P 1"
_space_group_IT_number       1

loop_
  _space_group_symop_operation_xyz
  'x, y, z'

loop_
  _atom_site_type_symbol
  _atom_site_label
  _atom_site_symmetry_multiplicity
  _atom_site_fract_x
  _atom_site_fract_y
  _atom_site_fract_z
  _atom_site_occupancy
  C   C1        1.0  0.21414  0.93691  0.07146  1.0000
  C   C2        1.0  0.18456  0.97329  0.05261  1.0000
  O   O1        1.0  0.14197  0.95413  0.04259  1.0000
  C   C3        1.0  0.11143  0.98375  0.02667  1.0000
  O   O2        1.0  0.11818  0.02355  0.02078  1.0000
  C   C4        1.0  0.06830  0.95999  0.01690  1.0000
  C   C5        1.0  0.03119  0.99318  0.00654  1.0000
  C   C6        1.0  0.98790  0.96974  0.99507  1.0000
  O   O3        1.0  0.98422  0.92904  0.99886  1.0000
  N   N1        1.0  0.95294  0.99632  0.98029  1.0000
  C   C7        1.0  0.91186  0.97423  0.96609  1.0000
  C   C8        1.0  0.88495  0.00305  0.93399  1.0000
  C   C9        1.0  0.87264  0.04813  0.95493  1.0000
  C   C10       1.0  0.82849  0.04524  0.97917  1.0000
  O   O4        1.0  0.80688  0.01176  0.98707  1.0000
  O   O5        1.0  0.81335  0.08562  0.99181  1.0000
  C   C11       1.0  0.90869  0.06545  0.98685  1.0000
  C   C12       1.0  0.95427  0.04500  0.97759  1.0000
  H   H1        1.0  0.21803  0.90974  0.04738  1.0000
  H   H2        1.0  0.19915  0.92247  0.10148  1.0000
  H   H3        1.0  0.24712  0.94998  0.07991  1.0000
  H   H4        1.0  0.18067  0.99995  0.07727  1.0000
  H   H5        1.0  0.19941  0.98681  0.02209  1.0000
  H   H6        1.0  0.07370  0.93764  0.98851  1.0000
  H   H7        1.0  0.05917  0.93999  0.04609  1.0000
  H   H8        1.0  0.04100  0.01423  0.97832  1.0000
  H   H9        1.0  0.02561  0.01447  0.03572  1.0000
  H   H10       1.0  0.89257  0.96669  0.99620  1.0000
  H   H11       1.0  0.92006  0.94242  0.95008  1.0000
  H   H12       1.0  0.85529  0.98488  0.92282  1.0000
  H   H13       1.0  0.90513  0.00915  0.90407  1.0000
  H   H14       1.0  0.86782  0.07174  0.92739  1.0000
  H   H15       1.0  0.78490  0.07919  0.00659  1.0000
  H   H16       1.0  0.91073  0.10187  0.98433  1.0000
  H   H17       1.0  0.89951  0.05808  0.02154  1.0000
  H   H18       1.0  0.97845  0.05856  0.00123  1.0000
  H   H19       1.0  0.96573  0.05376  0.94402  1.0000
