data_image0
_chemical_formula_structural       C2OC6NC2NC7N2CN2C2F3CNH24
_chemical_formula_sum              "C21 O1 N7 F3 H24"
_cell_length_a       30
_cell_length_b       30
_cell_length_c       30
_cell_angle_alpha    90
_cell_angle_beta     90
_cell_angle_gamma    90

_space_group_name_H-M_alt    "P 1"
_space_group_IT_number       1

loop_
  _space_group_symop_operation_xyz
  'x, y, z'

loop_
  _atom_site_type_symbol
  _atom_site_label
  _atom_site_symmetry_multiplicity
  _atom_site_fract_x
  _atom_site_fract_y
  _atom_site_fract_z
  _atom_site_occupancy
  C   C1        1.0  0.81829  0.10110  0.04696  1.0000
  C   C2        1.0  0.80438  0.05275  0.04146  1.0000
  O   O1        1.0  0.80612  0.04206  0.99501  1.0000
  C   C3        1.0  0.79585  0.99809  0.98828  1.0000
  C   C4        1.0  0.75033  0.98833  0.98394  1.0000
  C   C5        1.0  0.73613  0.94494  0.97566  1.0000
  C   C6        1.0  0.76746  0.91112  0.97113  1.0000
  C   C7        1.0  0.81299  0.92071  0.97453  1.0000
  C   C8        1.0  0.82805  0.96443  0.98286  1.0000
  N   N1        1.0  0.87495  0.97301  0.98539  1.0000
  C   C9        1.0  0.90927  0.94261  0.97946  1.0000
  C   C10       1.0  0.94874  0.96489  0.98554  1.0000
  N   N2        1.0  0.98936  0.94575  0.98167  1.0000
  C   C11       1.0  0.03213  0.95996  0.99539  1.0000
  C   C12       1.0  0.06971  0.94010  0.97511  1.0000
  C   C13       1.0  0.11336  0.95296  0.98588  1.0000
  C   C14       1.0  0.11979  0.98643  0.01674  1.0000
  C   C15       1.0  0.08269  0.00645  0.03635  1.0000
  C   C16       1.0  0.03922  0.99392  0.02646  1.0000
  C   C17       1.0  0.09897  0.04073  0.06851  1.0000
  N   N3        1.0  0.14761  0.04505  0.05905  1.0000
  N   N4        1.0  0.15853  0.00524  0.03349  1.0000
  C   C18       1.0  0.20377  0.99735  0.01698  1.0000
  N   N5        1.0  0.21798  0.95360  0.00257  1.0000
  N   N6        1.0  0.22318  0.02691  0.98392  1.0000
  C   C19       1.0  0.19750  0.02741  0.94170  1.0000
  C   C20       1.0  0.21510  0.05996  0.90633  1.0000
  F   F1        1.0  0.18808  0.06061  0.87022  1.0000
  F   F2        1.0  0.21669  0.10203  0.92277  1.0000
  F   F3        1.0  0.25645  0.04905  0.89228  1.0000
  C   C21       1.0  0.93593  0.00898  0.99379  1.0000
  N   N7        1.0  0.89178  0.01398  0.99477  1.0000
  H   H1        1.0  0.81736  0.11092  0.08206  1.0000
  H   H2        1.0  0.79612  0.12307  0.02807  1.0000
  H   H3        1.0  0.85207  0.10641  0.03407  1.0000
  H   H4        1.0  0.82701  0.03128  0.06057  1.0000
  H   H5        1.0  0.77037  0.04857  0.05422  1.0000
  H   H6        1.0  0.72589  0.01496  0.98681  1.0000
  H   H7        1.0  0.70079  0.93767  0.97247  1.0000
  H   H8        1.0  0.75658  0.87716  0.96457  1.0000
  H   H9        1.0  0.83572  0.89288  0.97036  1.0000
  H   H10       1.0  0.90310  0.90815  0.97157  1.0000
  H   H11       1.0  0.99056  0.91405  0.96972  1.0000
  H   H12       1.0  0.06524  0.91412  0.95021  1.0000
  H   H13       1.0  0.14116  0.93652  0.96966  1.0000
  H   H14       1.0  0.01188  0.00974  0.04395  1.0000
  H   H15       1.0  0.09415  0.02937  0.10284  1.0000
  H   H16       1.0  0.08232  0.07280  0.06361  1.0000
  H   H17       1.0  0.15093  0.07187  0.03820  1.0000
  H   H18       1.0  0.22439  0.00328  0.04664  1.0000
  H   H19       1.0  0.21414  0.93307  0.02924  1.0000
  H   H20       1.0  0.25123  0.95626  0.99678  1.0000
  H   H21       1.0  0.22206  0.05805  0.99727  1.0000
  H   H22       1.0  0.16294  0.03705  0.94844  1.0000
  H   H23       1.0  0.19716  0.99413  0.92679  1.0000
  H   H24       1.0  0.95648  0.03812  0.99885  1.0000
