data_image0
_chemical_formula_structural       C2OCOC10NCH23
_chemical_formula_sum              "C14 O2 N1 H23"
_cell_length_a       30
_cell_length_b       30
_cell_length_c       30
_cell_angle_alpha    90
_cell_angle_beta     90
_cell_angle_gamma    90

_space_group_name_H-M_alt    "P 1"
_space_group_IT_number       1

loop_
  _space_group_symop_operation_xyz
  'x, y, z'

loop_
  _atom_site_type_symbol
  _atom_site_label
  _atom_site_symmetry_multiplicity
  _atom_site_fract_x
  _atom_site_fract_y
  _atom_site_fract_z
  _atom_site_occupancy
  C   C1        1.0  0.16169  0.92651  0.99432  1.0000
  C   C2        1.0  0.15267  0.97492  0.00599  1.0000
  O   O1        1.0  0.10563  0.98349  0.00524  1.0000
  C   C3        1.0  0.08822  0.99561  0.96503  1.0000
  O   O2        1.0  0.10969  0.99863  0.93046  1.0000
  C   C4        1.0  0.03817  0.00279  0.96886  1.0000
  C   C5        1.0  0.01916  0.01804  0.92385  1.0000
  C   C6        1.0  0.97330  0.03783  0.92670  1.0000
  C   C7        1.0  0.95432  0.05099  0.96495  1.0000
  C   C8        1.0  0.97680  0.04813  0.00979  1.0000
  C   C9        1.0  0.95233  0.02021  0.04641  1.0000
  C   C10       1.0  0.91454  0.04707  0.06878  1.0000
  C   C11       1.0  0.87176  0.03559  0.04370  1.0000
  C   C12       1.0  0.88064  0.99185  0.01934  1.0000
  C   C13       1.0  0.92705  0.97704  0.03444  1.0000
  N   N1        1.0  0.94806  0.94649  0.00338  1.0000
  C   C14       1.0  0.02698  0.03634  0.00573  1.0000
  H   H1        1.0  0.15034  0.91886  0.96051  1.0000
  H   H2        1.0  0.19729  0.91906  0.99658  1.0000
  H   H3        1.0  0.14357  0.90427  0.01687  1.0000
  H   H4        1.0  0.16424  0.98182  0.03992  1.0000
  H   H5        1.0  0.17072  0.99759  0.98373  1.0000
  H   H6        1.0  0.02431  0.97010  0.97703  1.0000
  H   H7        1.0  0.01833  0.98948  0.90102  1.0000
  H   H8        1.0  0.04092  0.04301  0.90832  1.0000
  H   H9        1.0  0.95545  0.04242  0.89544  1.0000
  H   H10       1.0  0.92144  0.06619  0.96370  1.0000
  H   H11       1.0  0.97717  0.08260  0.02246  1.0000
  H   H12       1.0  0.97695  0.01246  0.07238  1.0000
  H   H13       1.0  0.92058  0.08307  0.06979  1.0000
  H   H14       1.0  0.91111  0.03599  0.10354  1.0000
  H   H15       1.0  0.86329  0.06186  0.01976  1.0000
  H   H16       1.0  0.84360  0.03259  0.06673  1.0000
  H   H17       1.0  0.85543  0.96673  0.02747  1.0000
  H   H18       1.0  0.87889  0.99716  0.98326  1.0000
  H   H19       1.0  0.92272  0.95842  0.06572  1.0000
  H   H20       1.0  0.94893  0.96088  0.97253  1.0000
  H   H21       1.0  0.92845  0.91894  0.99965  1.0000
  H   H22       1.0  0.04528  0.06728  0.99861  1.0000
  H   H23       1.0  0.03996  0.02504  0.03799  1.0000
