data_image0
_chemical_formula_structural       C2OCOC3NC2NC4NSC2H17
_chemical_formula_sum              "C14 O2 N3 S1 H17"
_cell_length_a       30
_cell_length_b       30
_cell_length_c       30
_cell_angle_alpha    90
_cell_angle_beta     90
_cell_angle_gamma    90

_space_group_name_H-M_alt    "P 1"
_space_group_IT_number       1

loop_
  _space_group_symop_operation_xyz
  'x, y, z'

loop_
  _atom_site_type_symbol
  _atom_site_label
  _atom_site_symmetry_multiplicity
  _atom_site_fract_x
  _atom_site_fract_y
  _atom_site_fract_z
  _atom_site_occupancy
  C   C1        1.0  0.83514  0.95958  0.02494  1.0000
  C   C2        1.0  0.87864  0.94800  0.00190  1.0000
  O   O1        1.0  0.90712  0.98634  0.00009  1.0000
  C   C3        1.0  0.90199  0.01322  0.96382  1.0000
  O   O2        1.0  0.87313  0.00751  0.93535  1.0000
  C   C4        1.0  0.93325  0.05083  0.96199  1.0000
  C   C5        1.0  0.97017  0.05811  0.98919  1.0000
  C   C6        1.0  0.98874  0.03055  0.02679  1.0000
  N   N1        1.0  0.01212  0.99189  0.00877  1.0000
  C   C7        1.0  0.02874  0.96132  0.04306  1.0000
  C   C8        1.0  0.06050  0.98403  0.07505  1.0000
  N   N2        1.0  0.10225  0.99398  0.06981  1.0000
  C   C9        1.0  0.12359  0.98438  0.02820  1.0000
  C   C10       1.0  0.16383  0.97372  0.01237  1.0000
  C   C11       1.0  0.14427  0.97779  0.96843  1.0000
  C   C12       1.0  0.16396  0.97199  0.92409  1.0000
  N   N3        1.0  0.10566  0.98913  0.98317  1.0000
  S   S1        1.0  0.99773  0.10657  0.97540  1.0000
  C   C13       1.0  0.96167  0.11813  0.93326  1.0000
  C   C14       1.0  0.92928  0.08597  0.92936  1.0000
  H   H1        1.0  0.81733  0.98587  0.00700  1.0000
  H   H2        1.0  0.84138  0.97207  0.05867  1.0000
  H   H3        1.0  0.81357  0.93030  0.02709  1.0000
  H   H4        1.0  0.87283  0.93416  0.96865  1.0000
  H   H5        1.0  0.89634  0.92247  0.02105  1.0000
  H   H6        1.0  0.01131  0.05089  0.04713  1.0000
  H   H7        1.0  0.96166  0.02032  0.04906  1.0000
  H   H8        1.0  0.03939  0.00264  0.99096  1.0000
  H   H9        1.0  0.00092  0.94743  0.06224  1.0000
  H   H10       1.0  0.04571  0.93321  0.02712  1.0000
  H   H11       1.0  0.04557  0.99405  0.10713  1.0000
  H   H12       1.0  0.19585  0.96698  0.02737  1.0000
  H   H13       1.0  0.13827  0.97496  0.89845  1.0000
  H   H14       1.0  0.17966  0.93917  0.92179  1.0000
  H   H15       1.0  0.18926  0.99763  0.91864  1.0000
  H   H16       1.0  0.96590  0.14774  0.91314  1.0000
  H   H17       1.0  0.90325  0.08709  0.90428  1.0000
