data_image0
_chemical_formula_structural       C2OC4NCOC2OC7NCOH18
_chemical_formula_sum              "C17 O4 N2 H18"
_cell_length_a       30
_cell_length_b       30
_cell_length_c       30
_cell_angle_alpha    90
_cell_angle_beta     90
_cell_angle_gamma    90

_space_group_name_H-M_alt    "P 1"
_space_group_IT_number       1

loop_
  _space_group_symop_operation_xyz
  'x, y, z'

loop_
  _atom_site_type_symbol
  _atom_site_label
  _atom_site_symmetry_multiplicity
  _atom_site_fract_x
  _atom_site_fract_y
  _atom_site_fract_z
  _atom_site_occupancy
  C   C1        1.0  0.21734  0.05374  0.96822  1.0000
  C   C2        1.0  0.19104  0.01752  0.99179  1.0000
  O   O1        1.0  0.14616  0.01951  0.97644  1.0000
  C   C3        1.0  0.11592  0.98927  0.99334  1.0000
  C   C4        1.0  0.12438  0.95734  0.02396  1.0000
  C   C5        1.0  0.09020  0.92695  0.03942  1.0000
  C   C6        1.0  0.04909  0.93141  0.02334  1.0000
  N   N1        1.0  0.01293  0.90648  0.03252  1.0000
  C   C7        1.0  0.97638  0.92057  0.00812  1.0000
  O   O2        1.0  0.93966  0.90315  0.00979  1.0000
  C   C8        1.0  0.99092  0.96084  0.97985  1.0000
  C   C9        1.0  0.96388  0.00211  0.99220  1.0000
  O   O3        1.0  0.92133  0.99941  0.97074  1.0000
  C   C10       1.0  0.88929  0.02787  0.98657  1.0000
  C   C11       1.0  0.89844  0.07039  0.00330  1.0000
  C   C12       1.0  0.86380  0.09767  0.01823  1.0000
  C   C13       1.0  0.81992  0.08272  0.01624  1.0000
  C   C14       1.0  0.81052  0.04056  0.99907  1.0000
  C   C15       1.0  0.84500  0.01290  0.98382  1.0000
  C   C16       1.0  0.83442  0.96741  0.96566  1.0000
  N   N2        1.0  0.03823  0.96354  0.99314  1.0000
  C   C17       1.0  0.06863  0.99297  0.97523  1.0000
  O   O4        1.0  0.05866  0.02069  0.94681  1.0000
  H   H1        1.0  0.21611  0.04905  0.93205  1.0000
  H   H2        1.0  0.20302  0.08659  0.97516  1.0000
  H   H3        1.0  0.25218  0.05358  0.97894  1.0000
  H   H4        1.0  0.19229  0.02327  0.02784  1.0000
  H   H5        1.0  0.20564  0.98497  0.98388  1.0000
  H   H6        1.0  0.15719  0.95270  0.03834  1.0000
  H   H7        1.0  0.09903  0.90130  0.06328  1.0000
  H   H8        1.0  0.01158  0.88011  0.05335  1.0000
  H   H9        1.0  0.98884  0.95245  0.94438  1.0000
  H   H10       1.0  0.95988  0.00424  0.02852  1.0000
  H   H11       1.0  0.98095  0.03211  0.98038  1.0000
  H   H12       1.0  0.93218  0.08338  0.00444  1.0000
  H   H13       1.0  0.87111  0.13071  0.03115  1.0000
  H   H14       1.0  0.79295  0.10396  0.02783  1.0000
  H   H15       1.0  0.77607  0.02937  0.99756  1.0000
  H   H16       1.0  0.79840  0.96181  0.96378  1.0000
  H   H17       1.0  0.84862  0.94164  0.98725  1.0000
  H   H18       1.0  0.84784  0.96374  0.93193  1.0000
