data_image0
_chemical_formula_structural       C2OCOC2NCOC2SC4SH11
_chemical_formula_sum              "C12 O3 N1 S2 H11"
_cell_length_a       30
_cell_length_b       30
_cell_length_c       30
_cell_angle_alpha    90
_cell_angle_beta     90
_cell_angle_gamma    90

_space_group_name_H-M_alt    "P 1"
_space_group_IT_number       1

loop_
  _space_group_symop_operation_xyz
  'x, y, z'

loop_
  _atom_site_type_symbol
  _atom_site_label
  _atom_site_symmetry_multiplicity
  _atom_site_fract_x
  _atom_site_fract_y
  _atom_site_fract_z
  _atom_site_occupancy
  C   C1        1.0  0.86126  0.04752  0.04780  1.0000
  C   C2        1.0  0.86938  0.99773  0.04430  1.0000
  O   O1        1.0  0.89113  0.98744  0.00298  1.0000
  C   C3        1.0  0.93649  0.99023  0.00290  1.0000
  O   O2        1.0  0.95899  0.00093  0.03542  1.0000
  C   C4        1.0  0.95545  0.97919  0.95964  1.0000
  C   C5        1.0  0.00050  0.97898  0.94859  1.0000
  N   N1        1.0  0.03313  0.98999  0.97994  1.0000
  C   C6        1.0  0.07861  0.99087  0.97271  1.0000
  O   O3        1.0  0.09674  0.98189  0.93715  1.0000
  C   C7        1.0  0.10579  0.00373  0.01159  1.0000
  C   C8        1.0  0.09065  0.01505  0.05374  1.0000
  S   S1        1.0  0.13276  0.02806  0.09013  1.0000
  C   C9        1.0  0.17237  0.01890  0.05041  1.0000
  C   C10       1.0  0.15379  0.00623  0.01043  1.0000
  C   C11       1.0  0.00712  0.96651  0.90311  1.0000
  C   C12       1.0  0.96776  0.95776  0.88122  1.0000
  S   S2        1.0  0.92273  0.96446  0.91513  1.0000
  H   H1        1.0  0.84214  0.05943  0.01909  1.0000
  H   H2        1.0  0.89275  0.06595  0.04797  1.0000
  H   H3        1.0  0.84294  0.05552  0.07829  1.0000
  H   H4        1.0  0.88846  0.98522  0.07284  1.0000
  H   H5        1.0  0.83743  0.98008  0.04422  1.0000
  H   H6        1.0  0.02133  0.99791  0.01063  1.0000
  H   H7        1.0  0.05689  0.01670  0.06622  1.0000
  H   H8        1.0  0.20732  0.02319  0.05812  1.0000
  H   H9        1.0  0.17347  0.99888  0.98099  1.0000
  H   H10       1.0  0.03913  0.96390  0.88658  1.0000
  H   H11       1.0  0.96349  0.94774  0.84684  1.0000
