data_image0
_chemical_formula_structural       C2OC4NC5OC2NC3NC4OCOC3H29
_chemical_formula_sum              "C24 O4 N3 H29"
_cell_length_a       30
_cell_length_b       30
_cell_length_c       30
_cell_angle_alpha    90
_cell_angle_beta     90
_cell_angle_gamma    90

_space_group_name_H-M_alt    "P 1"
_space_group_IT_number       1

loop_
  _space_group_symop_operation_xyz
  'x, y, z'

loop_
  _atom_site_type_symbol
  _atom_site_label
  _atom_site_symmetry_multiplicity
  _atom_site_fract_x
  _atom_site_fract_y
  _atom_site_fract_z
  _atom_site_occupancy
  C   C1        1.0  0.04456  0.17505  0.07516  1.0000
  C   C2        1.0  0.02471  0.18309  0.02927  1.0000
  O   O1        1.0  0.02933  0.14413  0.00199  1.0000
  C   C3        1.0  0.99268  0.11626  0.00451  1.0000
  C   C4        1.0  0.95515  0.12477  0.98168  1.0000
  C   C5        1.0  0.91596  0.09678  0.98322  1.0000
  C   C6        1.0  0.91417  0.05178  0.98421  1.0000
  N   N1        1.0  0.87278  0.03049  0.98401  1.0000
  C   C7        1.0  0.86779  0.98671  0.96291  1.0000
  C   C8        1.0  0.82354  0.96640  0.97775  1.0000
  C   C9        1.0  0.90951  0.95772  0.97268  1.0000
  C   C10       1.0  0.91018  0.91666  0.94193  1.0000
  C   C11       1.0  0.91291  0.94129  0.02120  1.0000
  O   O2        1.0  0.94906  0.98267  0.96062  1.0000
  C   C12       1.0  0.95422  0.02273  0.98366  1.0000
  C   C13       1.0  0.99399  0.03206  0.00336  1.0000
  N   N2        1.0  0.03265  0.00575  0.00205  1.0000
  C   C14       1.0  0.04225  0.96687  0.97416  1.0000
  C   C15       1.0  0.04767  0.98023  0.92493  1.0000
  C   C16       1.0  0.05116  0.94074  0.89633  1.0000
  N   N3        1.0  0.05389  0.90977  0.87332  1.0000
  C   C17       1.0  0.08301  0.94401  0.99467  1.0000
  C   C18       1.0  0.12723  0.95803  0.98560  1.0000
  C   C19       1.0  0.16382  0.93734  0.00587  1.0000
  C   C20       1.0  0.15544  0.90313  0.03535  1.0000
  O   O3        1.0  0.18672  0.87969  0.05830  1.0000
  C   C21       1.0  0.15878  0.84941  0.08326  1.0000
  O   O4        1.0  0.11173  0.85555  0.07512  1.0000
  C   C22       1.0  0.11279  0.88941  0.04487  1.0000
  C   C23       1.0  0.07613  0.90912  0.02539  1.0000
  C   C24       1.0  0.99872  0.07443  0.03151  1.0000
  H   H1        1.0  0.07891  0.16294  0.07238  1.0000
  H   H2        1.0  0.04438  0.20576  0.09488  1.0000
  H   H3        1.0  0.02563  0.14964  0.09328  1.0000
  H   H4        1.0  0.04340  0.20980  0.01277  1.0000
  H   H5        1.0  0.98998  0.19433  0.03182  1.0000
  H   H6        1.0  0.95258  0.15504  0.96195  1.0000
  H   H7        1.0  0.88491  0.11549  0.98233  1.0000
  H   H8        1.0  0.84702  0.05156  0.97768  1.0000
  H   H9        1.0  0.86606  0.99271  0.92682  1.0000
  H   H10       1.0  0.81789  0.93379  0.96244  1.0000
  H   H11       1.0  0.82187  0.96261  0.01404  1.0000
  H   H12       1.0  0.79575  0.98807  0.96803  1.0000
  H   H13       1.0  0.88254  0.89381  0.94872  1.0000
  H   H14       1.0  0.90862  0.92664  0.90679  1.0000
  H   H15       1.0  0.94145  0.89811  0.94584  1.0000
  H   H16       1.0  0.94516  0.92516  0.02714  1.0000
  H   H17       1.0  0.91053  0.96876  0.04511  1.0000
  H   H18       1.0  0.88661  0.91727  0.02920  1.0000
  H   H19       1.0  0.06041  0.02182  0.01315  1.0000
  H   H20       1.0  0.01479  0.94289  0.97676  1.0000
  H   H21       1.0  0.07656  0.00197  0.91996  1.0000
  H   H22       1.0  0.01900  0.99981  0.91372  1.0000
  H   H23       1.0  0.13383  0.98548  0.96293  1.0000
  H   H24       1.0  0.19774  0.94810  0.99894  1.0000
  H   H25       1.0  0.16514  0.85437  0.11893  1.0000
  H   H26       1.0  0.16782  0.81509  0.07440  1.0000
  H   H27       1.0  0.04278  0.89795  0.03416  1.0000
  H   H28       1.0  0.03145  0.07526  0.04783  1.0000
  H   H29       1.0  0.97469  0.07369  0.05910  1.0000
