data_image0
_chemical_formula_structural       C2OC4ClC2NCONC5OH15
_chemical_formula_sum              "C14 O3 Cl1 N2 H15"
_cell_length_a       30
_cell_length_b       30
_cell_length_c       30
_cell_angle_alpha    90
_cell_angle_beta     90
_cell_angle_gamma    90

_space_group_name_H-M_alt    "P 1"
_space_group_IT_number       1

loop_
  _space_group_symop_operation_xyz
  'x, y, z'

loop_
  _atom_site_type_symbol
  _atom_site_label
  _atom_site_symmetry_multiplicity
  _atom_site_fract_x
  _atom_site_fract_y
  _atom_site_fract_z
  _atom_site_occupancy
  C   C1        1.0  0.86168  0.07554  0.99821  1.0000
  C   C2        1.0  0.87866  0.04953  0.03818  1.0000
  O   O1        1.0  0.92010  0.02844  0.02812  1.0000
  C   C3        1.0  0.91988  0.98569  0.01158  1.0000
  C   C4        1.0  0.88197  0.96257  0.99752  1.0000
  C   C5        1.0  0.88589  0.91921  0.98100  1.0000
  C   C6        1.0  0.92763  0.89907  0.97834  1.0000
  Cl  Cl1       1.0  0.93194  0.84571  0.95767  1.0000
  C   C7        1.0  0.96578  0.92177  0.99201  1.0000
  C   C8        1.0  0.96218  0.96509  0.00871  1.0000
  N   N1        1.0  0.99916  0.99053  0.02290  1.0000
  C   C9        1.0  0.04281  0.97741  0.02731  1.0000
  O   O2        1.0  0.05756  0.93978  0.02173  1.0000
  N   N2        1.0  0.06925  0.01279  0.04004  1.0000
  C   C10       1.0  0.11707  0.00745  0.04328  1.0000
  C   C11       1.0  0.13718  0.01771  0.99928  1.0000
  C   C12       1.0  0.14818  0.99189  0.96286  1.0000
  C   C13       1.0  0.16597  0.02131  0.93057  1.0000
  C   C14       1.0  0.16455  0.06314  0.94924  1.0000
  O   O3        1.0  0.14695  0.06137  0.99092  1.0000
  H   H1        1.0  0.85482  0.05360  0.96991  1.0000
  H   H2        1.0  0.88678  0.09959  0.98706  1.0000
  H   H3        1.0  0.83113  0.09357  0.00661  1.0000
  H   H4        1.0  0.88547  0.07316  0.06521  1.0000
  H   H5        1.0  0.85381  0.02625  0.05136  1.0000
  H   H6        1.0  0.84895  0.97723  0.99856  1.0000
  H   H7        1.0  0.85628  0.90139  0.97009  1.0000
  H   H8        1.0  0.99782  0.90524  0.98918  1.0000
  H   H9        1.0  0.99115  0.02109  0.03472  1.0000
  H   H10       1.0  0.05907  0.04307  0.02957  1.0000
  H   H11       1.0  0.12894  0.03093  0.06855  1.0000
  H   H12       1.0  0.12555  0.97364  0.05408  1.0000
  H   H13       1.0  0.14347  0.95623  0.96016  1.0000
  H   H14       1.0  0.17817  0.01307  0.89769  1.0000
  H   H15       1.0  0.17417  0.09592  0.93778  1.0000
