data_image0
_chemical_formula_structural       C2OCOC4NCOC9H17
_chemical_formula_sum              "C17 O3 N1 H17"
_cell_length_a       30
_cell_length_b       30
_cell_length_c       30
_cell_angle_alpha    90
_cell_angle_beta     90
_cell_angle_gamma    90

_space_group_name_H-M_alt    "P 1"
_space_group_IT_number       1

loop_
  _space_group_symop_operation_xyz
  'x, y, z'

loop_
  _atom_site_type_symbol
  _atom_site_label
  _atom_site_symmetry_multiplicity
  _atom_site_fract_x
  _atom_site_fract_y
  _atom_site_fract_z
  _atom_site_occupancy
  C   C1        1.0  0.19454  0.91775  0.06134  1.0000
  C   C2        1.0  0.19901  0.96184  0.03677  1.0000
  O   O1        1.0  0.15554  0.98002  0.02812  1.0000
  C   C3        1.0  0.13665  0.96793  0.98887  1.0000
  O   O2        1.0  0.15317  0.94338  0.96098  1.0000
  C   C4        1.0  0.09185  0.98886  0.98379  1.0000
  C   C5        1.0  0.07300  0.01594  0.01681  1.0000
  C   C6        1.0  0.03041  0.03401  0.01079  1.0000
  C   C7        1.0  0.00616  0.02570  0.97174  1.0000
  N   N1        1.0  0.96323  0.04461  0.96867  1.0000
  C   C8        1.0  0.93338  0.04158  0.93364  1.0000
  O   O3        1.0  0.94006  0.02343  0.89754  1.0000
  C   C9        1.0  0.88945  0.06528  0.94296  1.0000
  C   C10       1.0  0.86452  0.04656  0.98261  1.0000
  C   C11       1.0  0.85234  0.00146  0.98367  1.0000
  C   C12       1.0  0.82975  0.98396  0.02033  1.0000
  C   C13       1.0  0.81872  0.01147  0.05616  1.0000
  C   C14       1.0  0.83011  0.05657  0.05522  1.0000
  C   C15       1.0  0.85275  0.07420  0.01861  1.0000
  C   C16       1.0  0.02525  0.99906  0.93870  1.0000
  C   C17       1.0  0.06771  0.98061  0.94471  1.0000
  H   H1        1.0  0.17735  0.89305  0.04054  1.0000
  H   H2        1.0  0.17462  0.92185  0.09166  1.0000
  H   H3        1.0  0.22722  0.90447  0.07044  1.0000
  H   H4        1.0  0.21680  0.98603  0.05765  1.0000
  H   H5        1.0  0.21833  0.95792  0.00591  1.0000
  H   H6        1.0  0.09075  0.02302  0.04749  1.0000
  H   H7        1.0  0.01646  0.05443  0.03740  1.0000
  H   H8        1.0  0.95206  0.06026  0.99641  1.0000
  H   H9        1.0  0.89683  0.10078  0.94767  1.0000
  H   H10       1.0  0.86825  0.06289  0.91338  1.0000
  H   H11       1.0  0.86045  0.97967  0.95589  1.0000
  H   H12       1.0  0.82074  0.94886  0.02096  1.0000
  H   H13       1.0  0.80104  0.99773  0.08459  1.0000
  H   H14       1.0  0.82122  0.07792  0.08296  1.0000
  H   H15       1.0  0.86087  0.10952  0.01834  1.0000
  H   H16       1.0  0.00781  0.99128  0.90796  1.0000
  H   H17       1.0  0.08161  0.95938  0.91873  1.0000
