data_image0
_chemical_formula_structural       C2OC3N2C6OCNC6OCOC6H35
_chemical_formula_sum              "C25 O4 N3 H35"
_cell_length_a       30
_cell_length_b       30
_cell_length_c       30
_cell_angle_alpha    90
_cell_angle_beta     90
_cell_angle_gamma    90

_space_group_name_H-M_alt    "P 1"
_space_group_IT_number       1

loop_
  _space_group_symop_operation_xyz
  'x, y, z'

loop_
  _atom_site_type_symbol
  _atom_site_label
  _atom_site_symmetry_multiplicity
  _atom_site_fract_x
  _atom_site_fract_y
  _atom_site_fract_z
  _atom_site_occupancy
  C   C1        1.0  0.98979  0.85069  0.08340  1.0000
  C   C2        1.0  0.99055  0.85378  0.03285  1.0000
  O   O1        1.0  0.01690  0.89096  0.01923  1.0000
  C   C3        1.0  0.99221  0.93174  0.01576  1.0000
  C   C4        1.0  0.97632  0.93766  0.96759  1.0000
  C   C5        1.0  0.95306  0.98305  0.95620  1.0000
  N   N1        1.0  0.98396  0.02178  0.96419  1.0000
  N   N2        1.0  0.96492  0.06340  0.96280  1.0000
  C   C6        1.0  0.97600  0.08931  0.99588  1.0000
  C   C7        1.0  0.95864  0.13529  0.99825  1.0000
  C   C8        1.0  0.96886  0.16169  0.03266  1.0000
  C   C9        1.0  0.99717  0.14588  0.06785  1.0000
  C   C10       1.0  0.01356  0.10432  0.06588  1.0000
  C   C11       1.0  0.04357  0.08410  0.10003  1.0000
  O   O2        1.0  0.00293  0.07539  0.03016  1.0000
  C   C12       1.0  0.02724  0.01733  0.94036  1.0000
  N   N3        1.0  0.05627  0.05622  0.94475  1.0000
  C   C13       1.0  0.08256  0.03350  0.96935  1.0000
  C   C14       1.0  0.12296  0.03917  0.99354  1.0000
  C   C15       1.0  0.14576  0.07759  0.99511  1.0000
  C   C16       1.0  0.18541  0.07104  0.02150  1.0000
  C   C17       1.0  0.18670  0.02868  0.03586  1.0000
  C   C18       1.0  0.14659  0.00350  0.01903  1.0000
  O   O3        1.0  0.12110  0.98949  0.05645  1.0000
  C   C19       1.0  0.11441  0.94265  0.05691  1.0000
  O   O4        1.0  0.06078  0.99493  0.96569  1.0000
  C   C20       1.0  0.91233  0.98937  0.98841  1.0000
  C   C21       1.0  0.87299  0.95739  0.98227  1.0000
  C   C22       1.0  0.84787  0.96080  0.93789  1.0000
  C   C23       1.0  0.85391  0.00484  0.91300  1.0000
  C   C24       1.0  0.89996  0.01193  0.89177  1.0000
  C   C25       1.0  0.93710  0.98019  0.90666  1.0000
  H   H1        1.0  0.97324  0.87986  0.09794  1.0000
  H   H2        1.0  0.02377  0.84990  0.09676  1.0000
  H   H3        1.0  0.97207  0.82071  0.09428  1.0000
  H   H4        1.0  0.95669  0.85576  0.01935  1.0000
  H   H5        1.0  0.00626  0.82382  0.01923  1.0000
  H   H6        1.0  0.96446  0.93168  0.03942  1.0000
  H   H7        1.0  0.01468  0.95865  0.02557  1.0000
  H   H8        1.0  0.00457  0.93183  0.94504  1.0000
  H   H9        1.0  0.95347  0.91009  0.96000  1.0000
  H   H10       1.0  0.93754  0.14615  0.97109  1.0000
  H   H11       1.0  0.95617  0.19553  0.03461  1.0000
  H   H12       1.0  0.00491  0.16825  0.09520  1.0000
  H   H13       1.0  0.05097  0.10730  0.12720  1.0000
  H   H14       1.0  0.02794  0.05448  0.11446  1.0000
  H   H15       1.0  0.07518  0.07412  0.08486  1.0000
  H   H16       1.0  0.02603  0.00569  0.90582  1.0000
  H   H17       1.0  0.13648  0.10865  0.97943  1.0000
  H   H18       1.0  0.20944  0.09688  0.02861  1.0000
  H   H19       1.0  0.21221  0.01437  0.05683  1.0000
  H   H20       1.0  0.15688  0.97594  0.99732  1.0000
  H   H21       1.0  0.14618  0.92548  0.06164  1.0000
  H   H22       1.0  0.09866  0.93148  0.02595  1.0000
  H   H23       1.0  0.09251  0.93444  0.08482  1.0000
  H   H24       1.0  0.92348  0.98700  0.02317  1.0000
  H   H25       1.0  0.89902  0.02339  0.98625  1.0000
  H   H26       1.0  0.88331  0.92276  0.98772  1.0000
  H   H27       1.0  0.84908  0.96461  0.00906  1.0000
  H   H28       1.0  0.81221  0.95592  0.94463  1.0000
  H   H29       1.0  0.85707  0.93279  0.91619  1.0000
  H   H30       1.0  0.84622  0.03279  0.93533  1.0000
  H   H31       1.0  0.82882  0.00672  0.88644  1.0000
  H   H32       1.0  0.89607  0.00740  0.85562  1.0000
  H   H33       1.0  0.91018  0.04680  0.89573  1.0000
  H   H34       1.0  0.92662  0.94594  0.89914  1.0000
  H   H35       1.0  0.96526  0.98515  0.88401  1.0000
