data_image0
_chemical_formula_structural       C2OCOC2NC5OC2OC2OH21
_chemical_formula_sum              "C14 O5 N1 H21"
_cell_length_a       30
_cell_length_b       30
_cell_length_c       30
_cell_angle_alpha    90
_cell_angle_beta     90
_cell_angle_gamma    90

_space_group_name_H-M_alt    "P 1"
_space_group_IT_number       1

loop_
  _space_group_symop_operation_xyz
  'x, y, z'

loop_
  _atom_site_type_symbol
  _atom_site_label
  _atom_site_symmetry_multiplicity
  _atom_site_fract_x
  _atom_site_fract_y
  _atom_site_fract_z
  _atom_site_occupancy
  C   C1        1.0  0.24380  0.07554  0.06635  1.0000
  C   C2        1.0  0.19703  0.09439  0.07124  1.0000
  O   O1        1.0  0.16459  0.06339  0.05455  1.0000
  C   C3        1.0  0.15732  0.06458  0.00999  1.0000
  O   O2        1.0  0.17603  0.08895  0.98328  1.0000
  C   C4        1.0  0.12262  0.03254  0.99624  1.0000
  C   C5        1.0  0.10268  0.00356  0.02370  1.0000
  N   N1        1.0  0.07042  0.97256  0.01299  1.0000
  C   C6        1.0  0.03645  0.95739  0.04251  1.0000
  C   C7        1.0  0.00698  0.96549  0.00288  1.0000
  C   C8        1.0  0.96362  0.95730  0.99549  1.0000
  C   C9        1.0  0.94180  0.96662  0.95348  1.0000
  C   C10       1.0  0.89853  0.96007  0.94335  1.0000
  O   O3        1.0  0.88141  0.96856  0.90103  1.0000
  C   C11       1.0  0.89379  0.01080  0.88272  1.0000
  C   C12       1.0  0.86336  0.94128  0.97469  1.0000
  O   O4        1.0  0.84459  0.90233  0.95471  1.0000
  C   C13       1.0  0.82588  0.97516  0.98310  1.0000
  C   C14       1.0  0.79466  0.96025  0.02033  1.0000
  O   O5        1.0  0.03852  0.98279  0.97981  1.0000
  H   H1        1.0  0.24668  0.04379  0.08425  1.0000
  H   H2        1.0  0.25192  0.06870  0.03144  1.0000
  H   H3        1.0  0.26845  0.09881  0.07985  1.0000
  H   H4        1.0  0.19370  0.12693  0.05493  1.0000
  H   H5        1.0  0.18987  0.09909  0.10684  1.0000
  H   H6        1.0  0.11395  0.03374  0.96124  1.0000
  H   H7        1.0  0.11188  0.00166  0.05868  1.0000
  H   H8        1.0  0.04150  0.92283  0.05270  1.0000
  H   H9        1.0  0.03124  0.97870  0.07157  1.0000
  H   H10       1.0  0.94490  0.94208  0.02233  1.0000
  H   H11       1.0  0.96398  0.97898  0.92753  1.0000
  H   H12       1.0  0.88962  0.03756  0.90738  1.0000
  H   H13       1.0  0.87151  0.01777  0.85470  1.0000
  H   H14       1.0  0.92794  0.01003  0.86989  1.0000
  H   H15       1.0  0.87749  0.93101  0.00664  1.0000
  H   H16       1.0  0.84542  0.90768  0.92263  1.0000
  H   H17       1.0  0.83978  0.00779  0.99183  1.0000
  H   H18       1.0  0.80597  0.97937  0.95269  1.0000
  H   H19       1.0  0.81285  0.95671  0.05178  1.0000
  H   H20       1.0  0.77898  0.92817  0.01266  1.0000
  H   H21       1.0  0.76829  0.98504  0.02540  1.0000
