data_image0
_chemical_formula_structural       C2OC6N2CSC2ONC7OC8O2C3H27
_chemical_formula_sum              "C29 O5 N3 S1 H27"
_cell_length_a       30
_cell_length_b       30
_cell_length_c       30
_cell_angle_alpha    90
_cell_angle_beta     90
_cell_angle_gamma    90

_space_group_name_H-M_alt    "P 1"
_space_group_IT_number       1

loop_
  _space_group_symop_operation_xyz
  'x, y, z'

loop_
  _atom_site_type_symbol
  _atom_site_label
  _atom_site_symmetry_multiplicity
  _atom_site_fract_x
  _atom_site_fract_y
  _atom_site_fract_z
  _atom_site_occupancy
  C   C1        1.0  0.26536  0.05441  0.94052  1.0000
  C   C2        1.0  0.24449  0.09046  0.96928  1.0000
  O   O1        1.0  0.19792  0.09459  0.96056  1.0000
  C   C3        1.0  0.16870  0.06854  0.98372  1.0000
  C   C4        1.0  0.12387  0.07778  0.97544  1.0000
  C   C5        1.0  0.08998  0.05342  0.99626  1.0000
  C   C6        1.0  0.10029  0.01890  0.02592  1.0000
  C   C7        1.0  0.06557  0.99059  0.04948  1.0000
  C   C8        1.0  0.01754  0.00665  0.04939  1.0000
  N   N1        1.0  0.99963  0.00654  0.00994  1.0000
  N   N2        1.0  0.96725  0.97361  0.00254  1.0000
  C   C9        1.0  0.97737  0.93292  0.01395  1.0000
  S   S1        1.0  0.94189  0.88926  0.99699  1.0000
  C   C10       1.0  0.91727  0.91414  0.94754  1.0000
  C   C11       1.0  0.87229  0.93497  0.95817  1.0000
  O   O2        1.0  0.83784  0.91328  0.95308  1.0000
  N   N3        1.0  0.87493  0.97869  0.97224  1.0000
  C   C12       1.0  0.83961  0.00826  0.98192  1.0000
  C   C13       1.0  0.79454  0.99755  0.97751  1.0000
  C   C14       1.0  0.76133  0.02903  0.98761  1.0000
  C   C15       1.0  0.71309  0.01629  0.98344  1.0000
  C   C16       1.0  0.77370  0.07142  0.00268  1.0000
  C   C17       1.0  0.81861  0.08267  0.00695  1.0000
  C   C18       1.0  0.85110  0.05116  0.99654  1.0000
  O   O3        1.0  0.89540  0.06170  0.00034  1.0000
  C   C19       1.0  0.01610  0.91580  0.04290  1.0000
  C   C20       1.0  0.99955  0.91281  0.08498  1.0000
  C   C21       1.0  0.98670  0.95600  0.10981  1.0000
  C   C22       1.0  0.96693  0.97464  0.14527  1.0000
  C   C23       1.0  0.97452  0.01841  0.12598  1.0000
  C   C24       1.0  0.99449  0.99850  0.09163  1.0000
  C   C25       1.0  0.06147  0.94022  0.03485  1.0000
  C   C26       1.0  0.08036  0.93037  0.98851  1.0000
  O   O4        1.0  0.11977  0.92128  0.98214  1.0000
  O   O5        1.0  0.04921  0.93227  0.95570  1.0000
  C   C27       1.0  0.06564  0.92269  0.91206  1.0000
  C   C28       1.0  0.14561  0.01010  0.03425  1.0000
  C   C29       1.0  0.17943  0.03451  0.01329  1.0000
  H   H1        1.0  0.25304  0.02128  0.94963  1.0000
  H   H2        1.0  0.25688  0.05955  0.90527  1.0000
  H   H3        1.0  0.30176  0.05474  0.94405  1.0000
  H   H4        1.0  0.25944  0.12246  0.95995  1.0000
  H   H5        1.0  0.25169  0.08599  0.00481  1.0000
  H   H6        1.0  0.11514  0.10427  0.95226  1.0000
  H   H7        1.0  0.05574  0.06220  0.98817  1.0000
  H   H8        1.0  0.07606  0.99075  0.08469  1.0000
  H   H9        1.0  0.91170  0.88758  0.92313  1.0000
  H   H10       1.0  0.93935  0.93823  0.93130  1.0000
  H   H11       1.0  0.90591  0.99160  0.97860  1.0000
  H   H12       1.0  0.78415  0.96478  0.96612  1.0000
  H   H13       1.0  0.70409  0.99296  0.01005  1.0000
  H   H14       1.0  0.70682  0.00066  0.95103  1.0000
  H   H15       1.0  0.69131  0.04551  0.98589  1.0000
  H   H16       1.0  0.74837  0.09597  0.01112  1.0000
  H   H17       1.0  0.82750  0.11573  0.01866  1.0000
  H   H18       1.0  0.89815  0.09255  0.00977  1.0000
  H   H19       1.0  0.98489  0.88226  0.09780  1.0000
  H   H20       1.0  0.95035  0.96296  0.17520  1.0000
  H   H21       1.0  0.96689  0.05215  0.13628  1.0000
  H   H22       1.0  0.08487  0.92204  0.05664  1.0000
  H   H23       1.0  0.03735  0.92299  0.88904  1.0000
  H   H24       1.0  0.08061  0.88946  0.91114  1.0000
  H   H25       1.0  0.08957  0.94816  0.90151  1.0000
  H   H26       1.0  0.15528  0.98330  0.05675  1.0000
  H   H27       1.0  0.21368  0.02542  0.02042  1.0000
