data_image0
_chemical_formula_structural       C2SOC6NCONC3NC2NOC5H34
_chemical_formula_sum              "C19 S1 O3 N4 H34"
_cell_length_a       30
_cell_length_b       30
_cell_length_c       30
_cell_angle_alpha    90
_cell_angle_beta     90
_cell_angle_gamma    90

_space_group_name_H-M_alt    "P 1"
_space_group_IT_number       1

loop_
  _space_group_symop_operation_xyz
  'x, y, z'

loop_
  _atom_site_type_symbol
  _atom_site_label
  _atom_site_symmetry_multiplicity
  _atom_site_fract_x
  _atom_site_fract_y
  _atom_site_fract_z
  _atom_site_occupancy
  C   C1        1.0  0.79348  0.06866  0.02514  1.0000
  C   C2        1.0  0.81601  0.02939  0.00245  1.0000
  S   S1        1.0  0.85526  0.00259  0.03991  1.0000
  O   O1        1.0  0.82897  0.98237  0.07723  1.0000
  C   C3        1.0  0.87233  0.95788  0.00110  1.0000
  C   C4        1.0  0.84636  0.91499  0.01072  1.0000
  C   C5        1.0  0.86215  0.87652  0.98174  1.0000
  C   C6        1.0  0.91202  0.86856  0.98763  1.0000
  C   C7        1.0  0.93854  0.91066  0.97748  1.0000
  C   C8        1.0  0.92301  0.95103  0.00495  1.0000
  N   N1        1.0  0.94702  0.99083  0.98952  1.0000
  C   C9        1.0  0.98767  0.00222  0.00734  1.0000
  O   O2        1.0  0.00526  0.98098  0.03751  1.0000
  N   N2        1.0  0.00715  0.03915  0.98762  1.0000
  C   C10       1.0  0.98201  0.07366  0.96363  1.0000
  C   C11       1.0  0.99354  0.12005  0.98113  1.0000
  C   C12       1.0  0.04364  0.12866  0.97858  1.0000
  N   N3        1.0  0.06793  0.08712  0.97303  1.0000
  C   C13       1.0  0.11578  0.09078  0.98086  1.0000
  C   C14       1.0  0.12782  0.04305  0.99185  1.0000
  N   N4        1.0  0.16893  0.03062  0.99644  1.0000
  O   O3        1.0  0.17128  0.98473  0.00456  1.0000
  C   C15       1.0  0.21692  0.97254  0.01113  1.0000
  C   C16       1.0  0.23092  0.98418  0.05861  1.0000
  C   C17       1.0  0.22100  0.92263  0.00262  1.0000
  C   C18       1.0  0.08703  0.01452  0.99602  1.0000
  C   C19       1.0  0.05190  0.05104  0.00188  1.0000
  H   H1        1.0  0.77504  0.05828  0.05495  1.0000
  H   H2        1.0  0.76988  0.08475  0.00212  1.0000
  H   H3        1.0  0.81802  0.09357  0.03536  1.0000
  H   H4        1.0  0.79136  0.00493  0.99199  1.0000
  H   H5        1.0  0.83424  0.04113  0.97328  1.0000
  H   H6        1.0  0.86473  0.96936  0.96734  1.0000
  H   H7        1.0  0.81071  0.92041  0.00524  1.0000
  H   H8        1.0  0.85026  0.90527  0.04570  1.0000
  H   H9        1.0  0.85495  0.88369  0.94665  1.0000
  H   H10       1.0  0.84377  0.84623  0.99058  1.0000
  H   H11       1.0  0.92289  0.84144  0.96539  1.0000
  H   H12       1.0  0.91903  0.85764  0.02198  1.0000
  H   H13       1.0  0.93548  0.91831  0.94189  1.0000
  H   H14       1.0  0.97393  0.90427  0.98337  1.0000
  H   H15       1.0  0.93164  0.94504  0.03996  1.0000
  H   H16       1.0  0.94483  0.99748  0.95638  1.0000
  H   H17       1.0  0.94610  0.06846  0.96698  1.0000
  H   H18       1.0  0.99043  0.07064  0.92814  1.0000
  H   H19       1.0  0.97517  0.14563  0.96263  1.0000
  H   H20       1.0  0.98299  0.12223  0.01602  1.0000
  H   H21       1.0  0.05087  0.15039  0.95009  1.0000
  H   H22       1.0  0.05399  0.14651  0.00867  1.0000
  H   H23       1.0  0.13378  0.10178  0.95105  1.0000
  H   H24       1.0  0.12417  0.11205  0.00945  1.0000
  H   H25       1.0  0.23795  0.99025  0.98695  1.0000
  H   H26       1.0  0.20919  0.96788  0.08319  1.0000
  H   H27       1.0  0.22786  0.02012  0.06441  1.0000
  H   H28       1.0  0.26546  0.97431  0.06523  1.0000
  H   H29       1.0  0.20986  0.91454  0.96878  1.0000
  H   H30       1.0  0.25551  0.91117  0.00656  1.0000
  H   H31       1.0  0.19972  0.90369  0.02544  1.0000
  H   H32       1.0  0.08915  0.99253  0.02497  1.0000
  H   H33       1.0  0.08248  0.99505  0.96549  1.0000
  H   H34       1.0  0.05060  0.06156  0.03694  1.0000
