data_image0
_chemical_formula_structural       C2SO2NC8H15
_chemical_formula_sum              "C10 S1 O2 N1 H15"
_cell_length_a       30
_cell_length_b       30
_cell_length_c       30
_cell_angle_alpha    90
_cell_angle_beta     90
_cell_angle_gamma    90

_space_group_name_H-M_alt    "P 1"
_space_group_IT_number       1

loop_
  _space_group_symop_operation_xyz
  'x, y, z'

loop_
  _atom_site_type_symbol
  _atom_site_label
  _atom_site_symmetry_multiplicity
  _atom_site_fract_x
  _atom_site_fract_y
  _atom_site_fract_z
  _atom_site_occupancy
  C   C1        1.0  0.14767  0.02320  0.99456  1.0000
  C   C2        1.0  0.10785  0.99275  0.00096  1.0000
  S   S1        1.0  0.06333  0.00725  0.96407  1.0000
  O   O1        1.0  0.07817  0.99869  0.91893  1.0000
  O   O2        1.0  0.04532  0.05007  0.97684  1.0000
  N   N1        1.0  0.02619  0.96615  0.97517  1.0000
  C   C3        1.0  0.98965  0.97690  0.00383  1.0000
  C   C4        1.0  0.99618  0.97168  0.04965  1.0000
  C   C5        1.0  0.96217  0.98199  0.07940  1.0000
  C   C6        1.0  0.92146  0.99747  0.06339  1.0000
  C   C7        1.0  0.91425  0.00301  0.01746  1.0000
  C   C8        1.0  0.86959  0.02006  0.00211  1.0000
  C   C9        1.0  0.94908  0.99361  0.98704  1.0000
  C   C10       1.0  0.94176  0.99977  0.93770  1.0000
  H   H1        1.0  0.13873  0.05800  0.00089  1.0000
  H   H2        1.0  0.16054  0.02103  0.96048  1.0000
  H   H3        1.0  0.17451  0.01396  0.01747  1.0000
  H   H4        1.0  0.11712  0.95816  0.99406  1.0000
  H   H5        1.0  0.09541  0.99550  0.03509  1.0000
  H   H6        1.0  0.01756  0.95084  0.94601  1.0000
  H   H7        1.0  0.02757  0.95900  0.06242  1.0000
  H   H8        1.0  0.96726  0.97784  0.11502  1.0000
  H   H9        1.0  0.89515  0.00529  0.08712  1.0000
  H   H10       1.0  0.85635  0.99914  0.97532  1.0000
  H   H11       1.0  0.84507  0.01951  0.02916  1.0000
  H   H12       1.0  0.87263  0.05449  0.99043  1.0000
  H   H13       1.0  0.92517  0.97035  0.92392  1.0000
  H   H14       1.0  0.92135  0.02924  0.93091  1.0000
  H   H15       1.0  0.97291  0.00505  0.91955  1.0000
