data_image0
_chemical_formula_structural       C2SC5NC3N2C8H31
_chemical_formula_sum              "C18 S1 N3 H31"
_cell_length_a       30
_cell_length_b       30
_cell_length_c       30
_cell_angle_alpha    90
_cell_angle_beta     90
_cell_angle_gamma    90

_space_group_name_H-M_alt    "P 1"
_space_group_IT_number       1

loop_
  _space_group_symop_operation_xyz
  'x, y, z'

loop_
  _atom_site_type_symbol
  _atom_site_label
  _atom_site_symmetry_multiplicity
  _atom_site_fract_x
  _atom_site_fract_y
  _atom_site_fract_z
  _atom_site_occupancy
  C   C1        1.0  0.15038  0.95987  0.89583  1.0000
  C   C2        1.0  0.17423  0.95577  0.94029  1.0000
  S   S1        1.0  0.13817  0.93174  0.98288  1.0000
  C   C3        1.0  0.10464  0.98108  0.99823  1.0000
  C   C4        1.0  0.13060  0.00901  0.03243  1.0000
  C   C5        1.0  0.11213  0.05621  0.03700  1.0000
  C   C6        1.0  0.07035  0.06153  0.06561  1.0000
  C   C7        1.0  0.03890  0.02161  0.06973  1.0000
  N   N1        1.0  0.02628  0.99776  0.02921  1.0000
  C   C8        1.0  0.00955  0.02485  0.99231  1.0000
  C   C9        1.0  0.96611  0.04607  0.00429  1.0000
  C   C10       1.0  0.95775  0.09078  0.01129  1.0000
  N   N2        1.0  0.91349  0.09424  0.02049  1.0000
  N   N3        1.0  0.89190  0.05527  0.01932  1.0000
  C   C11       1.0  0.92361  0.02522  0.00997  1.0000
  C   C12       1.0  0.91286  0.97616  0.00577  1.0000
  C   C13       1.0  0.89910  0.96348  0.95803  1.0000
  C   C14       1.0  0.85062  0.97470  0.94740  1.0000
  C   C15       1.0  0.81894  0.95398  0.98130  1.0000
  C   C16       1.0  0.83032  0.96817  0.02873  1.0000
  C   C17       1.0  0.87908  0.95893  0.04040  1.0000
  C   C18       1.0  0.05925  0.96425  0.01563  1.0000
  H   H1        1.0  0.13844  0.92743  0.88405  1.0000
  H   H2        1.0  0.12199  0.98268  0.89754  1.0000
  H   H3        1.0  0.17336  0.97292  0.87065  1.0000
  H   H4        1.0  0.20292  0.93352  0.93646  1.0000
  H   H5        1.0  0.18700  0.98813  0.95119  1.0000
  H   H6        1.0  0.09906  0.00048  0.96785  1.0000
  H   H7        1.0  0.13172  0.99250  0.06504  1.0000
  H   H8        1.0  0.16533  0.01257  0.02150  1.0000
  H   H9        1.0  0.13817  0.07754  0.05142  1.0000
  H   H10       1.0  0.10592  0.07003  0.00372  1.0000
  H   H11       1.0  0.08093  0.07035  0.09953  1.0000
  H   H12       1.0  0.05187  0.09067  0.05353  1.0000
  H   H13       1.0  0.05311  0.99793  0.09377  1.0000
  H   H14       1.0  0.00841  0.03327  0.08628  1.0000
  H   H15       1.0  0.00344  0.00372  0.96305  1.0000
  H   H16       1.0  0.03362  0.05012  0.98164  1.0000
  H   H17       1.0  0.97910  0.11975  0.01053  1.0000
  H   H18       1.0  0.89568  0.12211  0.02755  1.0000
  H   H19       1.0  0.94406  0.95832  0.01270  1.0000
  H   H20       1.0  0.90369  0.92741  0.95385  1.0000
  H   H21       1.0  0.92097  0.97957  0.93353  1.0000
  H   H22       1.0  0.84239  0.96239  0.91400  1.0000
  H   H23       1.0  0.84598  0.01093  0.94666  1.0000
  H   H24       1.0  0.82057  0.91754  0.97880  1.0000
  H   H25       1.0  0.78457  0.96362  0.97351  1.0000
  H   H26       1.0  0.82280  0.00365  0.03291  1.0000
  H   H27       1.0  0.80872  0.95033  0.05222  1.0000
  H   H28       1.0  0.88652  0.97249  0.07354  1.0000
  H   H29       1.0  0.88315  0.92263  0.04304  1.0000
  H   H30       1.0  0.04367  0.94332  0.98991  1.0000
  H   H31       1.0  0.06459  0.94157  0.04390  1.0000
