data_image0
_chemical_formula_structural       ClC6ClNC4NCClCNCBrCH7
_chemical_formula_sum              "Cl3 C14 N3 Br1 H7"
_cell_length_a       30
_cell_length_b       30
_cell_length_c       30
_cell_angle_alpha    90
_cell_angle_beta     90
_cell_angle_gamma    90

_space_group_name_H-M_alt    "P 1"
_space_group_IT_number       1

loop_
  _space_group_symop_operation_xyz
  'x, y, z'

loop_
  _atom_site_type_symbol
  _atom_site_label
  _atom_site_symmetry_multiplicity
  _atom_site_fract_x
  _atom_site_fract_y
  _atom_site_fract_z
  _atom_site_occupancy
  Cl  Cl1       1.0  0.78738  0.03404  0.99403  1.0000
  C   C1        1.0  0.84310  0.02048  0.99431  1.0000
  C   C2        1.0  0.86804  0.02498  0.95542  1.0000
  C   C3        1.0  0.91329  0.01403  0.95559  1.0000
  C   C4        1.0  0.93387  0.99844  0.99466  1.0000
  C   C5        1.0  0.98167  0.98723  0.99272  1.0000
  C   C6        1.0  0.99723  0.94601  0.98337  1.0000
  Cl  Cl2       1.0  0.96225  0.90139  0.97218  1.0000
  N   N1        1.0  0.04207  0.93628  0.98129  1.0000
  C   C7        1.0  0.07036  0.96799  0.99175  1.0000
  C   C8        1.0  0.11756  0.95497  0.98640  1.0000
  C   C9        1.0  0.15468  0.97613  0.99810  1.0000
  C   C10       1.0  0.15750  0.01860  0.02190  1.0000
  N   N2        1.0  0.12855  0.04826  0.03208  1.0000
  C   C11       1.0  0.08437  0.04658  0.02204  1.0000
  Cl  Cl3       1.0  0.05922  0.09827  0.03597  1.0000
  C   C12       1.0  0.05697  0.01470  0.00595  1.0000
  N   N3        1.0  0.01107  0.02157  0.00122  1.0000
  C   C13       1.0  0.90820  0.99424  0.03363  1.0000
  Br  Br1       1.0  0.93318  0.97421  0.08833  1.0000
  C   C14       1.0  0.86289  0.00521  0.03344  1.0000
  H   H1        1.0  0.85254  0.03687  0.92489  1.0000
  H   H2        1.0  0.93246  0.01753  0.92497  1.0000
  H   H3        1.0  0.12129  0.92261  0.97031  1.0000
  H   H4        1.0  0.18668  0.96064  0.99119  1.0000
  H   H5        1.0  0.19184  0.02620  0.03289  1.0000
  H   H6        1.0  0.99870  0.05062  0.01351  1.0000
  H   H7        1.0  0.84305  0.00191  0.06357  1.0000
