data_image0
_chemical_formula_structural       ClC4ClC4NC6NCH14
_chemical_formula_sum              "Cl2 C15 N2 H14"
_cell_length_a       30
_cell_length_b       30
_cell_length_c       30
_cell_angle_alpha    90
_cell_angle_beta     90
_cell_angle_gamma    90

_space_group_name_H-M_alt    "P 1"
_space_group_IT_number       1

loop_
  _space_group_symop_operation_xyz
  'x, y, z'

loop_
  _atom_site_type_symbol
  _atom_site_label
  _atom_site_symmetry_multiplicity
  _atom_site_fract_x
  _atom_site_fract_y
  _atom_site_fract_z
  _atom_site_occupancy
  Cl  Cl1       1.0  0.86359  0.93791  0.92195  1.0000
  C   C1        1.0  0.86800  0.96622  0.97154  1.0000
  C   C2        1.0  0.83117  0.96886  0.99989  1.0000
  C   C3        1.0  0.83436  0.99119  0.04092  1.0000
  C   C4        1.0  0.87442  0.01106  0.05392  1.0000
  Cl  Cl2       1.0  0.87778  0.03746  0.10462  1.0000
  C   C5        1.0  0.91075  0.00878  0.02542  1.0000
  C   C6        1.0  0.90755  0.98645  0.98436  1.0000
  C   C7        1.0  0.95153  0.98683  0.96042  1.0000
  C   C8        1.0  0.97572  0.02554  0.98445  1.0000
  N   N1        1.0  0.02437  0.02738  0.98053  1.0000
  C   C9        1.0  0.04770  0.98633  0.99337  1.0000
  C   C10       1.0  0.09756  0.99408  0.99700  1.0000
  C   C11       1.0  0.12429  0.99309  0.95901  1.0000
  C   C12       1.0  0.16971  0.00146  0.96337  1.0000
  C   C13       1.0  0.18714  0.01086  0.00523  1.0000
  C   C14       1.0  0.15823  0.01169  0.04120  1.0000
  N   N2        1.0  0.11401  0.00375  0.03806  1.0000
  C   C15       1.0  0.95709  0.02627  0.03259  1.0000
  H   H1        1.0  0.79977  0.95336  0.99050  1.0000
  H   H2        1.0  0.80539  0.99265  0.06266  1.0000
  H   H3        1.0  0.96777  0.95455  0.96528  1.0000
  H   H4        1.0  0.94812  0.99381  0.92479  1.0000
  H   H5        1.0  0.96377  0.05639  0.96852  1.0000
  H   H6        1.0  0.03615  0.05227  0.00065  1.0000
  H   H7        1.0  0.03600  0.97391  0.02565  1.0000
  H   H8        1.0  0.04192  0.95995  0.96878  1.0000
  H   H9        1.0  0.10989  0.98626  0.92653  1.0000
  H   H10       1.0  0.19125  0.00085  0.93427  1.0000
  H   H11       1.0  0.22235  0.01758  0.00972  1.0000
  H   H12       1.0  0.17023  0.01906  0.07456  1.0000
  H   H13       1.0  0.97510  0.00397  0.05514  1.0000
  H   H14       1.0  0.95734  0.06020  0.04600  1.0000
