data_image0
_chemical_formula_structural       ClC2ClCClCBrCNH
_chemical_formula_sum              "Cl3 C5 Br1 N1 H1"
_cell_length_a       30
_cell_length_b       30
_cell_length_c       30
_cell_angle_alpha    90
_cell_angle_beta     90
_cell_angle_gamma    90

_space_group_name_H-M_alt    "P 1"
_space_group_IT_number       1

loop_
  _space_group_symop_operation_xyz
  'x, y, z'

loop_
  _atom_site_type_symbol
  _atom_site_label
  _atom_site_symmetry_multiplicity
  _atom_site_fract_x
  _atom_site_fract_y
  _atom_site_fract_z
  _atom_site_occupancy
  Cl  Cl1       1.0  0.09160  0.94507  0.99450  1.0000
  C   C1        1.0  0.04131  0.97266  0.99689  1.0000
  C   C2        1.0  0.03729  0.01763  0.00755  1.0000
  Cl  Cl2       1.0  0.08381  0.04971  0.01943  1.0000
  C   C3        1.0  0.99415  0.03567  0.00822  1.0000
  Cl  Cl3       1.0  0.98607  0.09156  0.02120  1.0000
  C   C4        1.0  0.95755  0.00840  0.99838  1.0000
  Br  Br1       1.0  0.89765  0.02851  0.99811  1.0000
  C   C5        1.0  0.96553  0.96403  0.98821  1.0000
  N   N1        1.0  0.00654  0.94557  0.98724  1.0000
  H   H1        1.0  0.93850  0.94119  0.98027  1.0000
