data_image0
_chemical_formula_structural       CNC2OC4NC4BrC2ClCOCNH15
_chemical_formula_sum              "C15 N3 O2 Br1 Cl1 H15"
_cell_length_a       30
_cell_length_b       30
_cell_length_c       30
_cell_angle_alpha    90
_cell_angle_beta     90
_cell_angle_gamma    90

_space_group_name_H-M_alt    "P 1"
_space_group_IT_number       1

loop_
  _space_group_symop_operation_xyz
  'x, y, z'

loop_
  _atom_site_type_symbol
  _atom_site_label
  _atom_site_symmetry_multiplicity
  _atom_site_fract_x
  _atom_site_fract_y
  _atom_site_fract_z
  _atom_site_occupancy
  C   C1        1.0  0.78249  0.03294  0.99728  1.0000
  N   N1        1.0  0.83012  0.03474  0.00570  1.0000
  C   C2        1.0  0.84882  0.07865  0.01422  1.0000
  C   C3        1.0  0.85494  0.99528  0.00356  1.0000
  O   O1        1.0  0.83689  0.95836  0.00167  1.0000
  C   C4        1.0  0.90502  0.99648  0.00349  1.0000
  C   C5        1.0  0.92813  0.95952  0.01920  1.0000
  C   C6        1.0  0.97470  0.95977  0.01787  1.0000
  C   C7        1.0  0.99760  0.99597  0.99981  1.0000
  N   N2        1.0  0.04403  0.00003  0.99948  1.0000
  C   C8        1.0  0.07166  0.95999  0.00279  1.0000
  C   C9        1.0  0.12037  0.97293  0.00106  1.0000
  C   C10       1.0  0.13707  0.00484  0.03115  1.0000
  C   C11       1.0  0.18203  0.01682  0.03056  1.0000
  Br  Br1       1.0  0.20332  0.06003  0.07120  1.0000
  C   C12       1.0  0.21135  0.99726  0.00040  1.0000
  C   C13       1.0  0.19528  0.96536  0.97076  1.0000
  Cl  Cl1       1.0  0.23163  0.94084  0.93351  1.0000
  C   C14       1.0  0.15018  0.95314  0.97113  1.0000
  O   O2        1.0  0.13447  0.92149  0.94221  1.0000
  C   C15       1.0  0.97100  0.03167  0.98584  1.0000
  N   N3        1.0  0.92581  0.03282  0.98652  1.0000
  H   H1        1.0  0.77121  0.99944  0.98850  1.0000
  H   H2        1.0  0.76487  0.04384  0.02729  1.0000
  H   H3        1.0  0.77463  0.05549  0.96970  1.0000
  H   H4        1.0  0.85825  0.09381  0.98245  1.0000
  H   H5        1.0  0.82377  0.09959  0.03051  1.0000
  H   H6        1.0  0.87760  0.07658  0.03643  1.0000
  H   H7        1.0  0.91032  0.93092  0.03242  1.0000
  H   H8        1.0  0.99216  0.93098  0.03109  1.0000
  H   H9        1.0  0.05455  0.02020  0.97427  1.0000
  H   H10       1.0  0.06302  0.93705  0.97573  1.0000
  H   H11       1.0  0.06608  0.94276  0.03454  1.0000
  H   H12       1.0  0.11447  0.02033  0.05500  1.0000
  H   H13       1.0  0.24634  0.00661  0.00000  1.0000
  H   H14       1.0  0.15955  0.91154  0.92398  1.0000
  H   H15       1.0  0.98628  0.06193  0.97300  1.0000
