data_image0
_chemical_formula_structural       CNC5NCONC2OC5F3C5H22
_chemical_formula_sum              "C19 N3 O2 F3 H22"
_cell_length_a       30
_cell_length_b       30
_cell_length_c       30
_cell_angle_alpha    90
_cell_angle_beta     90
_cell_angle_gamma    90

_space_group_name_H-M_alt    "P 1"
_space_group_IT_number       1

loop_
  _space_group_symop_operation_xyz
  'x, y, z'

loop_
  _atom_site_type_symbol
  _atom_site_label
  _atom_site_symmetry_multiplicity
  _atom_site_fract_x
  _atom_site_fract_y
  _atom_site_fract_z
  _atom_site_occupancy
  C   C1        1.0  0.76672  0.01621  0.04910  1.0000
  N   N1        1.0  0.79100  0.98315  0.07520  1.0000
  C   C2        1.0  0.82487  0.00408  0.10305  1.0000
  C   C3        1.0  0.80808  0.94587  0.04840  1.0000
  C   C4        1.0  0.84208  0.95693  0.01276  1.0000
  C   C5        1.0  0.88795  0.95634  0.02241  1.0000
  C   C6        1.0  0.91975  0.96663  0.98973  1.0000
  N   N2        1.0  0.96497  0.96477  0.00233  1.0000
  C   C7        1.0  0.00135  0.97806  0.97781  1.0000
  O   O1        1.0  0.00116  0.99740  0.94188  1.0000
  N   N3        1.0  0.04048  0.96760  0.99966  1.0000
  C   C8        1.0  0.08392  0.97519  0.97874  1.0000
  C   C9        1.0  0.09472  0.02475  0.96933  1.0000
  O   O2        1.0  0.07691  0.03860  0.92741  1.0000
  C   C10       1.0  0.14480  0.03207  0.96891  1.0000
  C   C11       1.0  0.17001  0.02576  0.93005  1.0000
  C   C12       1.0  0.21624  0.03114  0.93053  1.0000
  C   C13       1.0  0.23840  0.04304  0.96997  1.0000
  C   C14       1.0  0.28842  0.04813  0.97023  1.0000
  F   F1        1.0  0.30980  0.00818  0.96725  1.0000
  F   F2        1.0  0.30445  0.06797  0.00782  1.0000
  F   F3        1.0  0.30383  0.07306  0.93555  1.0000
  C   C15       1.0  0.21329  0.04920  0.00893  1.0000
  C   C16       1.0  0.16701  0.04380  0.00836  1.0000
  C   C17       1.0  0.90532  0.97723  0.94681  1.0000
  C   C18       1.0  0.85985  0.97779  0.93672  1.0000
  C   C19       1.0  0.82844  0.96768  0.96942  1.0000
  H   H1        1.0  0.74976  0.03984  0.07120  1.0000
  H   H2        1.0  0.74061  0.00036  0.02906  1.0000
  H   H3        1.0  0.78847  0.03542  0.02691  1.0000
  H   H4        1.0  0.84195  0.97919  0.12358  1.0000
  H   H5        1.0  0.84987  0.02232  0.08373  1.0000
  H   H6        1.0  0.80933  0.02767  0.12621  1.0000
  H   H7        1.0  0.77984  0.92851  0.03281  1.0000
  H   H8        1.0  0.82240  0.92073  0.07086  1.0000
  H   H9        1.0  0.89853  0.94776  0.05600  1.0000
  H   H10       1.0  0.97120  0.95723  0.03450  1.0000
  H   H11       1.0  0.03852  0.93946  0.01804  1.0000
  H   H12       1.0  0.08480  0.95563  0.94793  1.0000
  H   H13       1.0  0.10817  0.96100  0.00207  1.0000
  H   H14       1.0  0.07971  0.04618  0.99486  1.0000
  H   H15       1.0  0.04569  0.02868  0.92695  1.0000
  H   H16       1.0  0.15345  0.01691  0.89895  1.0000
  H   H17       1.0  0.23496  0.02608  0.89983  1.0000
  H   H18       1.0  0.22971  0.05829  0.04004  1.0000
  H   H19       1.0  0.14837  0.04873  0.03909  1.0000
  H   H20       1.0  0.92863  0.98495  0.92023  1.0000
  H   H21       1.0  0.84905  0.98611  0.90314  1.0000
  H   H22       1.0  0.79318  0.96833  0.96090  1.0000
