data_image0
_chemical_formula_structural       CNC3N2C5SC2ClC5OH16
_chemical_formula_sum              "C16 N3 S1 Cl1 O1 H16"
_cell_length_a       30
_cell_length_b       30
_cell_length_c       30
_cell_angle_alpha    90
_cell_angle_beta     90
_cell_angle_gamma    90

_space_group_name_H-M_alt    "P 1"
_space_group_IT_number       1

loop_
  _space_group_symop_operation_xyz
  'x, y, z'

loop_
  _atom_site_type_symbol
  _atom_site_label
  _atom_site_symmetry_multiplicity
  _atom_site_fract_x
  _atom_site_fract_y
  _atom_site_fract_z
  _atom_site_occupancy
  C   C1        1.0  0.95864  0.02910  0.09202  1.0000
  N   N1        1.0  0.96505  0.02849  0.04354  1.0000
  C   C2        1.0  0.00809  0.01387  0.03133  1.0000
  C   C3        1.0  0.02381  0.96987  0.03261  1.0000
  C   C4        1.0  0.99701  0.93323  0.04800  1.0000
  N   N2        1.0  0.97437  0.90425  0.06026  1.0000
  N   N3        1.0  0.06561  0.95713  0.02033  1.0000
  C   C5        1.0  0.09456  0.98866  0.00650  1.0000
  C   C6        1.0  0.13908  0.97292  0.99327  1.0000
  C   C7        1.0  0.16960  0.99238  0.96453  1.0000
  C   C8        1.0  0.20975  0.96727  0.96025  1.0000
  C   C9        1.0  0.20896  0.92929  0.98587  1.0000
  S   S1        1.0  0.16020  0.92404  0.01473  1.0000
  C   C10       1.0  0.08291  0.03319  0.00454  1.0000
  C   C11       1.0  0.03986  0.04544  0.01711  1.0000
  Cl  Cl1       1.0  0.02707  0.10180  0.01450  1.0000
  C   C12       1.0  0.92709  0.01095  0.01774  1.0000
  C   C13       1.0  0.93103  0.02319  0.96808  1.0000
  C   C14       1.0  0.88586  0.02358  0.94438  1.0000
  C   C15       1.0  0.85235  0.99432  0.96862  1.0000
  C   C16       1.0  0.84796  0.00833  0.01739  1.0000
  O   O1        1.0  0.88680  0.03001  0.03434  1.0000
  H   H1        1.0  0.93146  0.05179  0.10092  1.0000
  H   H2        1.0  0.95051  0.99594  0.10496  1.0000
  H   H3        1.0  0.98842  0.04137  0.10930  1.0000
  H   H4        1.0  0.16359  0.02325  0.94680  1.0000
  H   H5        1.0  0.23770  0.97659  0.93937  1.0000
  H   H6        1.0  0.23465  0.90420  0.98905  1.0000
  H   H7        1.0  0.10660  0.05833  0.99390  1.0000
  H   H8        1.0  0.92474  0.97474  0.02175  1.0000
  H   H9        1.0  0.95359  0.99961  0.95157  1.0000
  H   H10       1.0  0.94605  0.05626  0.96389  1.0000
  H   H11       1.0  0.87314  0.05785  0.94329  1.0000
  H   H12       1.0  0.88979  0.01274  0.90973  1.0000
  H   H13       1.0  0.81972  0.99512  0.95226  1.0000
  H   H14       1.0  0.86373  0.95958  0.96710  1.0000
  H   H15       1.0  0.82031  0.03187  0.02110  1.0000
  H   H16       1.0  0.84034  0.97943  0.03837  1.0000
