data_image0
_chemical_formula_structural       CNC2ONC4ClCNC3OC8H30
_chemical_formula_sum              "C19 N3 O2 Cl1 H30"
_cell_length_a       30
_cell_length_b       30
_cell_length_c       30
_cell_angle_alpha    90
_cell_angle_beta     90
_cell_angle_gamma    90

_space_group_name_H-M_alt    "P 1"
_space_group_IT_number       1

loop_
  _space_group_symop_operation_xyz
  'x, y, z'

loop_
  _atom_site_type_symbol
  _atom_site_label
  _atom_site_symmetry_multiplicity
  _atom_site_fract_x
  _atom_site_fract_y
  _atom_site_fract_z
  _atom_site_occupancy
  C   C1        1.0  0.08047  0.07322  0.01243  1.0000
  N   N1        1.0  0.07745  0.02921  0.99082  1.0000
  C   C2        1.0  0.05002  0.03417  0.94939  1.0000
  C   C3        1.0  0.99994  0.03485  0.96053  1.0000
  O   O1        1.0  0.97307  0.05338  0.93589  1.0000
  N   N2        1.0  0.99048  0.01142  0.99925  1.0000
  C   C4        1.0  0.95009  0.00261  0.02030  1.0000
  C   C5        1.0  0.95362  0.98450  0.06126  1.0000
  C   C6        1.0  0.92071  0.97168  0.09387  1.0000
  C   C7        1.0  0.87637  0.96815  0.09000  1.0000
  Cl  Cl1       1.0  0.84681  0.94950  0.13676  1.0000
  C   C8        1.0  0.84737  0.97974  0.05076  1.0000
  N   N3        1.0  0.83912  0.93949  0.02445  1.0000
  C   C9        1.0  0.86408  0.02097  0.02418  1.0000
  C   C10       1.0  0.82692  0.03962  0.99328  1.0000
  C   C11       1.0  0.83277  0.02661  0.94446  1.0000
  O   O2        1.0  0.85218  0.98349  0.94175  1.0000
  C   C12       1.0  0.89807  0.98384  0.95584  1.0000
  C   C13       1.0  0.90704  0.01477  0.99626  1.0000
  C   C14       1.0  0.12190  0.00970  0.98026  1.0000
  C   C15       1.0  0.11668  0.95901  0.97204  1.0000
  C   C16       1.0  0.16101  0.93637  0.96126  1.0000
  C   C17       1.0  0.19548  0.94433  0.99761  1.0000
  C   C18       1.0  0.20144  0.99390  0.00656  1.0000
  C   C19       1.0  0.15714  0.01663  0.01735  1.0000
  H   H1        1.0  0.09439  0.07027  0.04604  1.0000
  H   H2        1.0  0.04740  0.08808  0.01698  1.0000
  H   H3        1.0  0.10076  0.09662  0.99305  1.0000
  H   H4        1.0  0.05885  0.06469  0.93130  1.0000
  H   H5        1.0  0.05435  0.00610  0.92652  1.0000
  H   H6        1.0  0.01911  0.00243  0.01537  1.0000
  H   H7        1.0  0.98711  0.97789  0.07395  1.0000
  H   H8        1.0  0.93554  0.96200  0.12566  1.0000
  H   H9        1.0  0.81485  0.98999  0.06420  1.0000
  H   H10       1.0  0.81435  0.92131  0.03885  1.0000
  H   H11       1.0  0.82836  0.94795  0.99317  1.0000
  H   H12       1.0  0.87061  0.04725  0.04895  1.0000
  H   H13       1.0  0.82622  0.07613  0.99541  1.0000
  H   H14       1.0  0.79405  0.02855  0.00487  1.0000
  H   H15       1.0  0.85352  0.05073  0.92645  1.0000
  H   H16       1.0  0.80031  0.02578  0.92781  1.0000
  H   H17       1.0  0.91817  0.99349  0.92696  1.0000
  H   H18       1.0  0.90714  0.94927  0.96340  1.0000
  H   H19       1.0  0.91237  0.04850  0.98303  1.0000
  H   H20       1.0  0.13494  0.02548  0.94986  1.0000
  H   H21       1.0  0.10210  0.94321  0.00169  1.0000
  H   H22       1.0  0.09383  0.95217  0.94441  1.0000
  H   H23       1.0  0.15570  0.90047  0.95713  1.0000
  H   H24       1.0  0.17366  0.94898  0.92936  1.0000
  H   H25       1.0  0.22743  0.92962  0.98778  1.0000
  H   H26       1.0  0.18497  0.92750  0.02832  1.0000
  H   H27       1.0  0.21648  0.00990  0.97731  1.0000
  H   H28       1.0  0.22469  0.99861  0.03435  1.0000
  H   H29       1.0  0.14447  0.00368  0.04915  1.0000
  H   H30       1.0  0.16406  0.05219  0.02209  1.0000
