data_image0
_chemical_formula_structural       CNC6NCONC3SC4ClC7H26
_chemical_formula_sum              "C22 N3 O1 S1 Cl1 H26"
_cell_length_a       30
_cell_length_b       30
_cell_length_c       30
_cell_angle_alpha    90
_cell_angle_beta     90
_cell_angle_gamma    90

_space_group_name_H-M_alt    "P 1"
_space_group_IT_number       1

loop_
  _space_group_symop_operation_xyz
  'x, y, z'

loop_
  _atom_site_type_symbol
  _atom_site_label
  _atom_site_symmetry_multiplicity
  _atom_site_fract_x
  _atom_site_fract_y
  _atom_site_fract_z
  _atom_site_occupancy
  C   C1        1.0  0.18491  0.08988  0.07792  1.0000
  N   N1        1.0  0.18891  0.06409  0.03676  1.0000
  C   C2        1.0  0.22013  0.08191  0.00385  1.0000
  C   C3        1.0  0.15199  0.03964  0.02194  1.0000
  C   C4        1.0  0.14871  0.02332  0.97819  1.0000
  C   C5        1.0  0.11199  0.99833  0.96344  1.0000
  C   C6        1.0  0.07661  0.98810  0.99208  1.0000
  C   C7        1.0  0.03785  0.96048  0.97470  1.0000
  N   N2        1.0  0.99535  0.97610  0.99184  1.0000
  C   C8        1.0  0.95716  0.97181  0.96733  1.0000
  O   O1        1.0  0.95568  0.95775  0.92909  1.0000
  N   N3        1.0  0.92051  0.98635  0.99027  1.0000
  C   C9        1.0  0.87567  0.98305  0.97166  1.0000
  C   C10       1.0  0.85885  0.93519  0.97799  1.0000
  C   C11       1.0  0.81123  0.92995  0.96216  1.0000
  S   S1        1.0  0.77392  0.95887  0.99977  1.0000
  C   C12       1.0  0.80140  0.01145  0.00398  1.0000
  C   C13       1.0  0.77590  0.04663  0.02152  1.0000
  C   C14       1.0  0.79358  0.08947  0.02543  1.0000
  C   C15       1.0  0.83695  0.09752  0.01154  1.0000
  Cl  Cl1       1.0  0.85894  0.15030  0.01559  1.0000
  C   C16       1.0  0.86275  0.06293  0.99432  1.0000
  C   C17       1.0  0.84579  0.01908  0.99108  1.0000
  C   C18       1.0  0.04171  0.91095  0.98362  1.0000
  C   C19       1.0  0.04495  0.89156  0.03007  1.0000
  C   C20       1.0  0.08379  0.88751  0.99862  1.0000
  C   C21       1.0  0.07959  0.00344  0.03596  1.0000
  C   C22       1.0  0.11650  0.02843  0.05036  1.0000
  H   H1        1.0  0.21566  0.10825  0.08510  1.0000
  H   H2        1.0  0.17939  0.06809  0.10669  1.0000
  H   H3        1.0  0.15783  0.11427  0.07559  1.0000
  H   H4        1.0  0.23588  0.05512  0.98469  1.0000
  H   H5        1.0  0.20346  0.10515  0.98114  1.0000
  H   H6        1.0  0.24747  0.09997  0.02001  1.0000
  H   H7        1.0  0.17484  0.02952  0.95395  1.0000
  H   H8        1.0  0.11158  0.98676  0.92905  1.0000
  H   H9        1.0  0.03692  0.96479  0.93836  1.0000
  H   H10       1.0  0.99184  0.97580  0.02513  1.0000
  H   H11       1.0  0.92349  0.99266  0.02312  1.0000
  H   H12       1.0  0.87792  0.98955  0.93568  1.0000
  H   H13       1.0  0.88009  0.91235  0.95886  1.0000
  H   H14       1.0  0.86208  0.92476  0.01296  1.0000
  H   H15       1.0  0.80693  0.94273  0.92824  1.0000
  H   H16       1.0  0.80189  0.89468  0.96196  1.0000
  H   H17       1.0  0.74163  0.04094  0.03202  1.0000
  H   H18       1.0  0.77321  0.11621  0.03891  1.0000
  H   H19       1.0  0.89653  0.07010  0.98307  1.0000
  H   H20       1.0  0.02082  0.89278  0.96016  1.0000
  H   H21       1.0  0.02583  0.86170  0.03714  1.0000
  H   H22       1.0  0.04882  0.91344  0.05849  1.0000
  H   H23       1.0  0.11355  0.90654  0.00621  1.0000
  H   H24       1.0  0.09080  0.85498  0.98446  1.0000
  H   H25       1.0  0.05362  0.99609  0.06006  1.0000
  H   H26       1.0  0.11658  0.03870  0.08506  1.0000
