data_image0
_chemical_formula_structural       CNC5OC3NSO2C4NCOC3OC4H27
_chemical_formula_sum              "C21 N3 O5 S1 H27"
_cell_length_a       30
_cell_length_b       30
_cell_length_c       30
_cell_angle_alpha    90
_cell_angle_beta     90
_cell_angle_gamma    90

_space_group_name_H-M_alt    "P 1"
_space_group_IT_number       1

loop_
  _space_group_symop_operation_xyz
  'x, y, z'

loop_
  _atom_site_type_symbol
  _atom_site_label
  _atom_site_symmetry_multiplicity
  _atom_site_fract_x
  _atom_site_fract_y
  _atom_site_fract_z
  _atom_site_occupancy
  C   C1        1.0  0.86712  0.95729  0.04048  1.0000
  N   N1        1.0  0.86145  0.94551  0.99376  1.0000
  C   C2        1.0  0.82356  0.91652  0.98367  1.0000
  C   C3        1.0  0.78161  0.94090  0.97095  1.0000
  C   C4        1.0  0.75269  0.96231  0.00628  1.0000
  C   C5        1.0  0.77582  0.99100  0.97233  1.0000
  C   C6        1.0  0.88618  0.96116  0.95794  1.0000
  O   O1        1.0  0.87796  0.94879  0.91946  1.0000
  C   C7        1.0  0.92441  0.99434  0.96432  1.0000
  C   C8        1.0  0.96451  0.97518  0.98954  1.0000
  C   C9        1.0  0.98470  0.00866  0.02212  1.0000
  N   N2        1.0  0.99031  0.05203  0.99927  1.0000
  S   S1        1.0  0.02537  0.08905  0.02487  1.0000
  O   O2        1.0  0.02695  0.12921  0.99818  1.0000
  O   O3        1.0  0.01307  0.09041  0.07154  1.0000
  C   C10       1.0  0.07810  0.06268  0.02000  1.0000
  C   C11       1.0  0.09923  0.04514  0.05738  1.0000
  C   C12       1.0  0.14113  0.02495  0.05286  1.0000
  C   C13       1.0  0.16297  0.02224  0.01140  1.0000
  N   N3        1.0  0.20589  0.00172  0.00709  1.0000
  C   C14       1.0  0.22531  0.97486  0.03893  1.0000
  O   O4        1.0  0.20995  0.96116  0.07416  1.0000
  C   C15       1.0  0.27173  0.96319  0.02457  1.0000
  C   C16       1.0  0.27352  0.97695  0.97636  1.0000
  C   C17       1.0  0.23349  0.00630  0.97059  1.0000
  O   O5        1.0  0.22899  0.02955  0.93735  1.0000
  C   C18       1.0  0.14077  0.04072  0.97444  1.0000
  C   C19       1.0  0.09879  0.06080  0.97848  1.0000
  C   C20       1.0  0.94775  0.07280  0.98395  1.0000
  C   C21       1.0  0.90916  0.03960  0.98208  1.0000
  H   H1        1.0  0.86397  0.92725  0.06093  1.0000
  H   H2        1.0  0.84141  0.98117  0.05007  1.0000
  H   H3        1.0  0.89952  0.97179  0.04734  1.0000
  H   H4        1.0  0.81714  0.89458  0.01223  1.0000
  H   H5        1.0  0.83286  0.89442  0.95602  1.0000
  H   H6        1.0  0.76417  0.92299  0.94468  1.0000
  H   H7        1.0  0.71686  0.95833  0.00340  1.0000
  H   H8        1.0  0.76455  0.96345  0.04039  1.0000
  H   H9        1.0  0.80306  0.01197  0.98341  1.0000
  H   H10       1.0  0.75575  0.00605  0.94623  1.0000
  H   H11       1.0  0.93644  0.00089  0.93022  1.0000
  H   H12       1.0  0.99004  0.96599  0.96492  1.0000
  H   H13       1.0  0.95645  0.94413  0.00700  1.0000
  H   H14       1.0  0.96358  0.01276  0.05161  1.0000
  H   H15       1.0  0.01677  0.99553  0.03339  1.0000
  H   H16       1.0  0.08378  0.04705  0.09017  1.0000
  H   H17       1.0  0.15631  0.01238  0.08327  1.0000
  H   H18       1.0  0.27793  0.92749  0.02850  1.0000
  H   H19       1.0  0.29551  0.98205  0.04484  1.0000
  H   H20       1.0  0.27057  0.94826  0.95400  1.0000
  H   H21       1.0  0.30417  0.99520  0.96883  1.0000
  H   H22       1.0  0.15501  0.03968  0.94111  1.0000
  H   H23       1.0  0.08266  0.07486  0.94917  1.0000
  H   H24       1.0  0.95368  0.08635  0.95055  1.0000
  H   H25       1.0  0.93812  0.10051  0.00574  1.0000
  H   H26       1.0  0.88244  0.05313  0.96112  1.0000
  H   H27       1.0  0.89478  0.03673  0.01543  1.0000
