data_image0
_chemical_formula_structural       CNC5SCOCSCNCNC2ONH14
_chemical_formula_sum              "C12 N4 S2 O2 H14"
_cell_length_a       30
_cell_length_b       30
_cell_length_c       30
_cell_angle_alpha    90
_cell_angle_beta     90
_cell_angle_gamma    90

_space_group_name_H-M_alt    "P 1"
_space_group_IT_number       1

loop_
  _space_group_symop_operation_xyz
  'x, y, z'

loop_
  _atom_site_type_symbol
  _atom_site_label
  _atom_site_symmetry_multiplicity
  _atom_site_fract_x
  _atom_site_fract_y
  _atom_site_fract_z
  _atom_site_occupancy
  C   C1        1.0  0.90420  0.90871  0.02685  1.0000
  N   N1        1.0  0.94517  0.93249  0.01598  1.0000
  C   C2        1.0  0.95160  0.94456  0.96907  1.0000
  C   C3        1.0  0.91831  0.97882  0.95387  1.0000
  C   C4        1.0  0.89840  0.01325  0.97719  1.0000
  C   C5        1.0  0.86881  0.03885  0.95026  1.0000
  C   C6        1.0  0.86717  0.02344  0.90707  1.0000
  S   S1        1.0  0.90119  0.97846  0.89921  1.0000
  C   C7        1.0  0.97108  0.94804  0.05120  1.0000
  O   O1        1.0  0.95883  0.94406  0.09031  1.0000
  C   C8        1.0  0.01605  0.96925  0.04127  1.0000
  S   S2        1.0  0.01000  0.02893  0.03392  1.0000
  C   C9        1.0  0.06469  0.04317  0.02180  1.0000
  N   N2        1.0  0.09616  0.01422  0.01781  1.0000
  C   C10       1.0  0.13794  0.02957  0.00745  1.0000
  N   N3        1.0  0.17148  0.99872  0.00220  1.0000
  C   C11       1.0  0.14683  0.07318  0.00262  1.0000
  C   C12       1.0  0.11058  0.10562  0.00797  1.0000
  O   O2        1.0  0.11711  0.14576  0.00450  1.0000
  N   N4        1.0  0.07002  0.08774  0.01699  1.0000
  H   H1        1.0  0.89752  0.88361  0.00123  1.0000
  H   H2        1.0  0.87654  0.93239  0.02847  1.0000
  H   H3        1.0  0.90697  0.89179  0.05905  1.0000
  H   H4        1.0  0.94853  0.91374  0.94966  1.0000
  H   H5        1.0  0.98502  0.95757  0.96295  1.0000
  H   H6        1.0  0.90448  0.01979  0.01220  1.0000
  H   H7        1.0  0.84971  0.06715  0.96199  1.0000
  H   H8        1.0  0.84765  0.03643  0.87965  1.0000
  H   H9        1.0  0.03180  0.95318  0.01263  1.0000
  H   H10       1.0  0.03772  0.96287  0.07000  1.0000
  H   H11       1.0  0.20206  0.01010  0.01117  1.0000
  H   H12       1.0  0.16313  0.96999  0.01816  1.0000
  H   H13       1.0  0.17940  0.08614  0.99430  1.0000
  H   H14       1.0  0.04384  0.10840  0.02101  1.0000
