data_image0
_chemical_formula_structural       CNC6ClC2NCONC6OCH26
_chemical_formula_sum              "C17 N3 Cl1 O2 H26"
_cell_length_a       30
_cell_length_b       30
_cell_length_c       30
_cell_angle_alpha    90
_cell_angle_beta     90
_cell_angle_gamma    90

_space_group_name_H-M_alt    "P 1"
_space_group_IT_number       1

loop_
  _space_group_symop_operation_xyz
  'x, y, z'

loop_
  _atom_site_type_symbol
  _atom_site_label
  _atom_site_symmetry_multiplicity
  _atom_site_fract_x
  _atom_site_fract_y
  _atom_site_fract_z
  _atom_site_occupancy
  C   C1        1.0  0.86585  0.01471  0.06224  1.0000
  N   N1        1.0  0.83271  0.02445  0.02780  1.0000
  C   C2        1.0  0.81031  0.06669  0.03765  1.0000
  C   C3        1.0  0.85239  0.02582  0.98285  1.0000
  C   C4        1.0  0.86848  0.98064  0.96649  1.0000
  C   C5        1.0  0.83528  0.94935  0.95493  1.0000
  C   C6        1.0  0.84641  0.90740  0.93848  1.0000
  C   C7        1.0  0.89099  0.89612  0.93356  1.0000
  Cl  Cl1       1.0  0.90499  0.84416  0.91355  1.0000
  C   C8        1.0  0.92446  0.92628  0.94514  1.0000
  C   C9        1.0  0.91386  0.96870  0.96177  1.0000
  N   N2        1.0  0.94767  0.99866  0.97535  1.0000
  C   C10       1.0  0.99255  0.99652  0.96565  1.0000
  O   O1        1.0  0.01075  0.97107  0.93954  1.0000
  N   N3        1.0  0.01562  0.02872  0.98926  1.0000
  C   C11       1.0  0.06370  0.03242  0.98523  1.0000
  C   C12       1.0  0.08792  0.99730  0.01314  1.0000
  C   C13       1.0  0.13859  0.00035  0.00857  1.0000
  C   C14       1.0  0.16272  0.96372  0.03445  1.0000
  C   C15       1.0  0.21058  0.98052  0.03911  1.0000
  C   C16       1.0  0.20839  0.03114  0.03299  1.0000
  O   O2        1.0  0.23120  0.04276  0.99304  1.0000
  C   C17       1.0  0.15900  0.04265  0.02851  1.0000
  H   H1        1.0  0.89281  0.03937  0.06273  1.0000
  H   H2        1.0  0.85023  0.01428  0.09528  1.0000
  H   H3        1.0  0.88050  0.98159  0.05763  1.0000
  H   H4        1.0  0.78386  0.07324  0.01333  1.0000
  H   H5        1.0  0.83349  0.09494  0.03737  1.0000
  H   H6        1.0  0.79418  0.06538  0.07040  1.0000
  H   H7        1.0  0.82685  0.03672  0.95889  1.0000
  H   H8        1.0  0.87836  0.05139  0.98059  1.0000
  H   H9        1.0  0.80022  0.95797  0.95895  1.0000
  H   H10       1.0  0.82030  0.88388  0.92975  1.0000
  H   H11       1.0  0.95885  0.91559  0.94157  1.0000
  H   H12       1.0  0.93823  0.02764  0.98926  1.0000
  H   H13       1.0  0.00241  0.03736  0.01895  1.0000
  H   H14       1.0  0.07242  0.06604  0.99637  1.0000
  H   H15       1.0  0.07287  0.02930  0.95002  1.0000
  H   H16       1.0  0.07708  0.96391  0.00294  1.0000
  H   H17       1.0  0.07814  0.00085  0.04822  1.0000
  H   H18       1.0  0.14778  0.99797  0.97319  1.0000
  H   H19       1.0  0.16120  0.93147  0.01744  1.0000
  H   H20       1.0  0.14797  0.95948  0.06764  1.0000
  H   H21       1.0  0.22358  0.97172  0.07211  1.0000
  H   H22       1.0  0.23217  0.96485  0.01412  1.0000
  H   H23       1.0  0.22424  0.04894  0.06062  1.0000
  H   H24       1.0  0.22987  0.07503  0.99009  1.0000
  H   H25       1.0  0.15326  0.07177  0.00726  1.0000
  H   H26       1.0  0.14472  0.04918  0.06153  1.0000
