data_image0
_chemical_formula_structural       CNC5O2C3FCFCFCH14
_chemical_formula_sum              "C12 N1 O2 F3 H14"
_cell_length_a       30
_cell_length_b       30
_cell_length_c       30
_cell_angle_alpha    90
_cell_angle_beta     90
_cell_angle_gamma    90

_space_group_name_H-M_alt    "P 1"
_space_group_IT_number       1

loop_
  _space_group_symop_operation_xyz
  'x, y, z'

loop_
  _atom_site_type_symbol
  _atom_site_label
  _atom_site_symmetry_multiplicity
  _atom_site_fract_x
  _atom_site_fract_y
  _atom_site_fract_z
  _atom_site_occupancy
  C   C1        1.0  0.96606  0.02843  0.91610  1.0000
  N   N1        1.0  0.97072  0.03366  0.96440  1.0000
  C   C2        1.0  0.01665  0.03524  0.98143  1.0000
  C   C3        1.0  0.03518  0.98823  0.98872  1.0000
  C   C4        1.0  0.08311  0.98973  0.00594  1.0000
  C   C5        1.0  0.10167  0.94289  0.01336  1.0000
  C   C6        1.0  0.14890  0.94422  0.03020  1.0000
  O   O1        1.0  0.17174  0.97708  0.03714  1.0000
  O   O2        1.0  0.16522  0.90302  0.03747  1.0000
  C   C7        1.0  0.93413  0.02696  0.99217  1.0000
  C   C8        1.0  0.93782  0.02648  0.03893  1.0000
  C   C9        1.0  0.90080  0.02008  0.06652  1.0000
  F   F1        1.0  0.90654  0.01974  0.11083  1.0000
  C   C10       1.0  0.85880  0.01414  0.04861  1.0000
  F   F2        1.0  0.82341  0.00798  0.07516  1.0000
  C   C11       1.0  0.85394  0.01471  0.00283  1.0000
  F   F3        1.0  0.81358  0.00914  0.98446  1.0000
  C   C12       1.0  0.89080  0.02107  0.97504  1.0000
  H   H1        1.0  0.99778  0.03396  0.89884  1.0000
  H   H2        1.0  0.95497  0.99467  0.90766  1.0000
  H   H3        1.0  0.94252  0.05283  0.90256  1.0000
  H   H4        1.0  0.01891  0.05527  0.01189  1.0000
  H   H5        1.0  0.03786  0.05286  0.95736  1.0000
  H   H6        1.0  0.03404  0.96955  0.95730  1.0000
  H   H7        1.0  0.01429  0.96993  0.01247  1.0000
  H   H8        1.0  0.08434  0.00853  0.03729  1.0000
  H   H9        1.0  0.10422  0.00769  0.98209  1.0000
  H   H10       1.0  0.08126  0.92524  0.03796  1.0000
  H   H11       1.0  0.10128  0.92426  0.98195  1.0000
  H   H12       1.0  0.19563  0.90825  0.04823  1.0000
  H   H13       1.0  0.96957  0.03097  0.05561  1.0000
  H   H14       1.0  0.88427  0.02132  0.93947  1.0000
