data_image0
_chemical_formula_structural       CNC3NSO2C2N2C3ClC4H19
_chemical_formula_sum              "C13 N4 S1 O2 Cl1 H19"
_cell_length_a       30
_cell_length_b       30
_cell_length_c       30
_cell_angle_alpha    90
_cell_angle_beta     90
_cell_angle_gamma    90

_space_group_name_H-M_alt    "P 1"
_space_group_IT_number       1

loop_
  _space_group_symop_operation_xyz
  'x, y, z'

loop_
  _atom_site_type_symbol
  _atom_site_label
  _atom_site_symmetry_multiplicity
  _atom_site_fract_x
  _atom_site_fract_y
  _atom_site_fract_z
  _atom_site_occupancy
  C   C1        1.0  0.84158  0.02042  0.95906  1.0000
  N   N1        1.0  0.85513  0.03942  0.00181  1.0000
  C   C2        1.0  0.84582  0.00844  0.03808  1.0000
  C   C3        1.0  0.90092  0.05688  0.00131  1.0000
  C   C4        1.0  0.93993  0.02553  0.98934  1.0000
  N   N2        1.0  0.95002  0.99391  0.02551  1.0000
  S   S1        1.0  0.95636  0.93968  0.01395  1.0000
  O   O1        1.0  0.95561  0.91728  0.05660  1.0000
  O   O2        1.0  0.92546  0.92811  0.97889  1.0000
  C   C5        1.0  0.01153  0.93791  0.99252  1.0000
  C   C6        1.0  0.04507  0.94882  0.02851  1.0000
  N   N3        1.0  0.08898  0.95580  0.00949  1.0000
  N   N4        1.0  0.11222  0.92011  0.99533  1.0000
  C   C7        1.0  0.14985  0.93773  0.97942  1.0000
  C   C8        1.0  0.15074  0.98470  0.98253  1.0000
  C   C9        1.0  0.18010  0.01935  0.97133  1.0000
  Cl  Cl1       1.0  0.22941  0.00441  0.94718  1.0000
  C   C10       1.0  0.16897  0.06369  0.97964  1.0000
  C   C11       1.0  0.12815  0.07384  0.99934  1.0000
  C   C12       1.0  0.09792  0.04020  0.01106  1.0000
  C   C13       1.0  0.11011  0.99583  0.00233  1.0000
  H   H1        1.0  0.84731  0.04421  0.93194  1.0000
  H   H2        1.0  0.85923  0.98947  0.95119  1.0000
  H   H3        1.0  0.80576  0.01323  0.95915  1.0000
  H   H4        1.0  0.80985  0.00258  0.04064  1.0000
  H   H5        1.0  0.86195  0.97606  0.03360  1.0000
  H   H6        1.0  0.85630  0.02239  0.07016  1.0000
  H   H7        1.0  0.90774  0.07251  0.03371  1.0000
  H   H8        1.0  0.90158  0.08454  0.97733  1.0000
  H   H9        1.0  0.96992  0.04593  0.98467  1.0000
  H   H10       1.0  0.93410  0.00884  0.95748  1.0000
  H   H11       1.0  0.93538  0.99946  0.05575  1.0000
  H   H12       1.0  0.01316  0.96097  0.96427  1.0000
  H   H13       1.0  0.01678  0.90418  0.97954  1.0000
  H   H14       1.0  0.04795  0.92162  0.05275  1.0000
  H   H15       1.0  0.03609  0.97881  0.04722  1.0000
  H   H16       1.0  0.17512  0.91575  0.96598  1.0000
  H   H17       1.0  0.19197  0.09024  0.97084  1.0000
  H   H18       1.0  0.11963  0.10851  0.00585  1.0000
  H   H19       1.0  0.06631  0.04864  0.02654  1.0000
