data_image0
_chemical_formula_structural       CNC13NC6NC2SCH35
_chemical_formula_sum              "C23 N3 S1 H35"
_cell_length_a       30
_cell_length_b       30
_cell_length_c       30
_cell_angle_alpha    90
_cell_angle_beta     90
_cell_angle_gamma    90

_space_group_name_H-M_alt    "P 1"
_space_group_IT_number       1

loop_
  _space_group_symop_operation_xyz
  'x, y, z'

loop_
  _atom_site_type_symbol
  _atom_site_label
  _atom_site_symmetry_multiplicity
  _atom_site_fract_x
  _atom_site_fract_y
  _atom_site_fract_z
  _atom_site_occupancy
  C   C1        1.0  0.81657  0.04076  0.94393  1.0000
  N   N1        1.0  0.81947  0.99463  0.92857  1.0000
  C   C2        1.0  0.79717  0.99043  0.88524  1.0000
  C   C3        1.0  0.86567  0.97828  0.92496  1.0000
  C   C4        1.0  0.89124  0.97369  0.96927  1.0000
  C   C5        1.0  0.91806  0.01554  0.98217  1.0000
  C   C6        1.0  0.95293  0.00857  0.02035  1.0000
  C   C7        1.0  0.93285  0.99291  0.06512  1.0000
  C   C8        1.0  0.88843  0.00259  0.07674  1.0000
  C   C9        1.0  0.87024  0.98900  0.11749  1.0000
  C   C10       1.0  0.89626  0.96608  0.14819  1.0000
  C   C11       1.0  0.94061  0.95716  0.13827  1.0000
  C   C12       1.0  0.95867  0.97066  0.09742  1.0000
  C   C13       1.0  0.97674  0.05371  0.02899  1.0000
  C   C14       1.0  0.02579  0.04191  0.03360  1.0000
  N   N2        1.0  0.03140  0.00756  0.99955  1.0000
  C   C15       1.0  0.07294  0.98213  0.00337  1.0000
  C   C16       1.0  0.11384  0.01046  0.99102  1.0000
  C   C17       1.0  0.15950  0.98571  0.99252  1.0000
  C   C18       1.0  0.16988  0.96851  0.03990  1.0000
  C   C19       1.0  0.15884  0.94484  0.96105  1.0000
  C   C20       1.0  0.19615  0.01790  0.97691  1.0000
  N   N3        1.0  0.21778  0.01391  0.93879  1.0000
  C   C21       1.0  0.24853  0.04777  0.93414  1.0000
  C   C22       1.0  0.25014  0.07789  0.96871  1.0000
  S   S1        1.0  0.21218  0.06333  0.00867  1.0000
  C   C23       1.0  0.99173  0.97873  0.00245  1.0000
  H   H1        1.0  0.78217  0.05305  0.94181  1.0000
  H   H2        1.0  0.82549  0.04315  0.97918  1.0000
  H   H3        1.0  0.83783  0.06325  0.92447  1.0000
  H   H4        1.0  0.79716  0.95564  0.87410  1.0000
  H   H5        1.0  0.81319  0.01079  0.85946  1.0000
  H   H6        1.0  0.76212  0.00045  0.88767  1.0000
  H   H7        1.0  0.86408  0.94448  0.91093  1.0000
  H   H8        1.0  0.88494  0.99834  0.90114  1.0000
  H   H9        1.0  0.91417  0.94548  0.96557  1.0000
  H   H10       1.0  0.86809  0.96412  0.99583  1.0000
  H   H11       1.0  0.93588  0.02724  0.95235  1.0000
  H   H12       1.0  0.89560  0.04285  0.99105  1.0000
  H   H13       1.0  0.86674  0.02098  0.05431  1.0000
  H   H14       1.0  0.83563  0.99654  0.12518  1.0000
  H   H15       1.0  0.88211  0.95556  0.17985  1.0000
  H   H16       1.0  0.96144  0.93987  0.16237  1.0000
  H   H17       1.0  0.99379  0.96369  0.09188  1.0000
  H   H18       1.0  0.97274  0.07627  0.00042  1.0000
  H   H19       1.0  0.96447  0.07151  0.05843  1.0000
  H   H20       1.0  0.04661  0.07118  0.02724  1.0000
  H   H21       1.0  0.03310  0.02951  0.06718  1.0000
  H   H22       1.0  0.07100  0.95388  0.98030  1.0000
  H   H23       1.0  0.07640  0.96841  0.03707  1.0000
  H   H24       1.0  0.11537  0.03934  0.01344  1.0000
  H   H25       1.0  0.10884  0.02411  0.95734  1.0000
  H   H26       1.0  0.14721  0.94163  0.04975  1.0000
  H   H27       1.0  0.20393  0.95528  0.04201  1.0000
  H   H28       1.0  0.16681  0.99497  0.06491  1.0000
  H   H29       1.0  0.19191  0.92936  0.95880  1.0000
  H   H30       1.0  0.13589  0.91895  0.97273  1.0000
  H   H31       1.0  0.14871  0.95427  0.92720  1.0000
  H   H32       1.0  0.26912  0.04893  0.90448  1.0000
  H   H33       1.0  0.27125  0.10684  0.97231  1.0000
  H   H34       1.0  0.98503  0.96623  0.96879  1.0000
  H   H35       1.0  0.99758  0.94920  0.02304  1.0000
