data_image0
_chemical_formula_structural       CNC9OC5H31
_chemical_formula_sum              "C15 N1 O1 H31"
_cell_length_a       30
_cell_length_b       30
_cell_length_c       30
_cell_angle_alpha    90
_cell_angle_beta     90
_cell_angle_gamma    90

_space_group_name_H-M_alt    "P 1"
_space_group_IT_number       1

loop_
  _space_group_symop_operation_xyz
  'x, y, z'

loop_
  _atom_site_type_symbol
  _atom_site_label
  _atom_site_symmetry_multiplicity
  _atom_site_fract_x
  _atom_site_fract_y
  _atom_site_fract_z
  _atom_site_occupancy
  C   C1        1.0  0.19261  0.06351  0.99714  1.0000
  N   N1        1.0  0.18632  0.01829  0.98033  1.0000
  C   C2        1.0  0.21349  0.98643  0.00510  1.0000
  C   C3        1.0  0.13914  0.00523  0.97761  1.0000
  C   C4        1.0  0.11355  0.00292  0.02187  1.0000
  C   C5        1.0  0.06471  0.98911  0.01691  1.0000
  C   C6        1.0  0.03321  0.01431  0.98457  1.0000
  C   C7        1.0  0.00865  0.96946  0.97629  1.0000
  C   C8        1.0  0.96716  0.95987  0.00443  1.0000
  C   C9        1.0  0.92730  0.98698  0.98725  1.0000
  C   C10       1.0  0.88539  0.98098  0.01626  1.0000
  O   O1        1.0  0.87167  0.93537  0.01408  1.0000
  C   C11       1.0  0.84514  0.01124  0.00312  1.0000
  C   C12       1.0  0.85719  0.06091  0.00784  1.0000
  C   C13       1.0  0.82951  0.00241  0.95501  1.0000
  C   C14       1.0  0.80565  0.00142  0.03468  1.0000
  C   C15       1.0  0.05187  0.94570  0.99197  1.0000
  H   H1        1.0  0.17268  0.08736  0.97798  1.0000
  H   H2        1.0  0.22749  0.07368  0.99330  1.0000
  H   H3        1.0  0.18382  0.06678  0.03242  1.0000
  H   H4        1.0  0.20570  0.98600  0.04076  1.0000
  H   H5        1.0  0.20916  0.95266  0.99189  1.0000
  H   H6        1.0  0.24892  0.99454  0.00148  1.0000
  H   H7        1.0  0.12244  0.02851  0.95494  1.0000
  H   H8        1.0  0.13750  0.97287  0.96074  1.0000
  H   H9        1.0  0.12979  0.97917  0.04438  1.0000
  H   H10       1.0  0.11447  0.03547  0.03844  1.0000
  H   H11       1.0  0.05048  0.98889  0.05080  1.0000
  H   H12       1.0  0.04895  0.02748  0.95440  1.0000
  H   H13       1.0  0.01368  0.04104  0.99984  1.0000
  H   H14       1.0  0.00165  0.96327  0.94089  1.0000
  H   H15       1.0  0.97323  0.96763  0.03961  1.0000
  H   H16       1.0  0.95960  0.92419  0.00238  1.0000
  H   H17       1.0  0.92040  0.97630  0.95298  1.0000
  H   H18       1.0  0.93675  0.02218  0.98594  1.0000
  H   H19       1.0  0.89403  0.98792  0.05114  1.0000
  H   H20       1.0  0.89299  0.91778  0.03098  1.0000
  H   H21       1.0  0.88213  0.07128  0.98331  1.0000
  H   H22       1.0  0.82785  0.08209  0.00274  1.0000
  H   H23       1.0  0.87037  0.06814  0.04112  1.0000
  H   H24       1.0  0.82074  0.96733  0.94997  1.0000
  H   H25       1.0  0.79995  0.02234  0.94700  1.0000
  H   H26       1.0  0.85527  0.01116  0.93068  1.0000
  H   H27       1.0  0.77723  0.02323  0.02748  1.0000
  H   H28       1.0  0.81510  0.00677  0.06956  1.0000
  H   H29       1.0  0.79397  0.96697  0.03141  1.0000
  H   H30       1.0  0.07374  0.93650  0.96424  1.0000
  H   H31       1.0  0.04736  0.91636  0.01315  1.0000
