data_image0
_chemical_formula_structural       CNC2OC4O2COC5ClCClH17
_chemical_formula_sum              "C14 N1 O4 Cl2 H17"
_cell_length_a       30
_cell_length_b       30
_cell_length_c       30
_cell_angle_alpha    90
_cell_angle_beta     90
_cell_angle_gamma    90

_space_group_name_H-M_alt    "P 1"
_space_group_IT_number       1

loop_
  _space_group_symop_operation_xyz
  'x, y, z'

loop_
  _atom_site_type_symbol
  _atom_site_label
  _atom_site_symmetry_multiplicity
  _atom_site_fract_x
  _atom_site_fract_y
  _atom_site_fract_z
  _atom_site_occupancy
  C   C1        1.0  0.92850  0.89622  0.99102  1.0000
  N   N1        1.0  0.93761  0.93733  0.01591  1.0000
  C   C2        1.0  0.98493  0.95105  0.01527  1.0000
  C   C3        1.0  0.99490  0.99062  0.04629  1.0000
  O   O1        1.0  0.04140  0.00047  0.05072  1.0000
  C   C4        1.0  0.06136  0.01830  0.01193  1.0000
  C   C5        1.0  0.09687  0.05157  0.02530  1.0000
  C   C6        1.0  0.12529  0.05375  0.98369  1.0000
  C   C7        1.0  0.17318  0.06885  0.99191  1.0000
  O   O2        1.0  0.19503  0.04035  0.02298  1.0000
  O   O3        1.0  0.12546  0.00899  0.96677  1.0000
  C   C8        1.0  0.08936  0.98665  0.98361  1.0000
  O   O4        1.0  0.08142  0.94754  0.97571  1.0000
  C   C9        1.0  0.90506  0.97036  0.00815  1.0000
  C   C10       1.0  0.87393  0.97598  0.04293  1.0000
  C   C11       1.0  0.83979  0.00740  0.04054  1.0000
  C   C12       1.0  0.83586  0.03409  0.00292  1.0000
  C   C13       1.0  0.86594  0.02921  0.96767  1.0000
  Cl  Cl1       1.0  0.85836  0.06398  0.92214  1.0000
  C   C14       1.0  0.90049  0.99745  0.96979  1.0000
  Cl  Cl2       1.0  0.93648  0.99197  0.92472  1.0000
  H   H1        1.0  0.93558  0.89987  0.95541  1.0000
  H   H2        1.0  0.94941  0.86917  0.00386  1.0000
  H   H3        1.0  0.89375  0.88569  0.99510  1.0000
  H   H4        1.0  0.00528  0.92281  0.02655  1.0000
  H   H5        1.0  0.99623  0.95805  0.98138  1.0000
  H   H6        1.0  0.98279  0.98274  0.07985  1.0000
  H   H7        1.0  0.97737  0.02090  0.03575  1.0000
  H   H8        1.0  0.03677  0.03438  0.99012  1.0000
  H   H9        1.0  0.11548  0.03909  0.05421  1.0000
  H   H10       1.0  0.08303  0.08400  0.03467  1.0000
  H   H11       1.0  0.10994  0.07520  0.95838  1.0000
  H   H12       1.0  0.17395  0.10283  0.00513  1.0000
  H   H13       1.0  0.19240  0.06796  0.96090  1.0000
  H   H14       1.0  0.19437  0.01040  0.01028  1.0000
  H   H15       1.0  0.87677  0.95525  0.07262  1.0000
  H   H16       1.0  0.81643  0.01091  0.06802  1.0000
  H   H17       1.0  0.80922  0.05861  0.00111  1.0000
