data_image0
_chemical_formula_structural       CNC3NCOC6NC16H37
_chemical_formula_sum              "C27 N3 O1 H37"
_cell_length_a       30
_cell_length_b       30
_cell_length_c       30
_cell_angle_alpha    90
_cell_angle_beta     90
_cell_angle_gamma    90

_space_group_name_H-M_alt    "P 1"
_space_group_IT_number       1

loop_
  _space_group_symop_operation_xyz
  'x, y, z'

loop_
  _atom_site_type_symbol
  _atom_site_label
  _atom_site_symmetry_multiplicity
  _atom_site_fract_x
  _atom_site_fract_y
  _atom_site_fract_z
  _atom_site_occupancy
  C   C1        1.0  0.16370  0.97595  0.96196  1.0000
  N   N1        1.0  0.14822  0.01772  0.98173  1.0000
  C   C2        1.0  0.11609  0.01081  0.01846  1.0000
  C   C3        1.0  0.07198  0.98856  0.00508  1.0000
  C   C4        1.0  0.07164  0.93813  0.01212  1.0000
  N   N2        1.0  0.02816  0.91922  0.00274  1.0000
  C   C5        1.0  0.99468  0.91964  0.03433  1.0000
  O   O1        1.0  0.99979  0.93313  0.07256  1.0000
  C   C6        1.0  0.95028  0.90355  0.01919  1.0000
  C   C7        1.0  0.94602  0.86983  0.98719  1.0000
  C   C8        1.0  0.90375  0.85560  0.97398  1.0000
  C   C9        1.0  0.86571  0.87469  0.99279  1.0000
  C   C10       1.0  0.86946  0.90814  0.02527  1.0000
  C   C11       1.0  0.82829  0.92870  0.04595  1.0000
  N   N3        1.0  0.82136  0.97557  0.03372  1.0000
  C   C12       1.0  0.78705  0.99624  0.06230  1.0000
  C   C13       1.0  0.75549  0.03079  0.04070  1.0000
  C   C14       1.0  0.77676  0.05498  0.00238  1.0000
  C   C15       1.0  0.76711  0.09948  0.99253  1.0000
  C   C16       1.0  0.78694  0.11979  0.95571  1.0000
  C   C17       1.0  0.81606  0.09567  0.92855  1.0000
  C   C18       1.0  0.82529  0.05104  0.93793  1.0000
  C   C19       1.0  0.80570  0.03049  0.97490  1.0000
  C   C20       1.0  0.81322  0.98187  0.98591  1.0000
  C   C21       1.0  0.91207  0.92237  0.03832  1.0000
  C   C22       1.0  0.18480  0.04793  0.99570  1.0000
  C   C23       1.0  0.22180  0.02621  0.02404  1.0000
  C   C24       1.0  0.25720  0.06026  0.03771  1.0000
  C   C25       1.0  0.27671  0.08445  0.99746  1.0000
  C   C26       1.0  0.24044  0.10565  0.96879  1.0000
  C   C27       1.0  0.20518  0.07164  0.95480  1.0000
  H   H1        1.0  0.17637  0.95252  0.98701  1.0000
  H   H2        1.0  0.18996  0.98143  0.93720  1.0000
  H   H3        1.0  0.13662  0.95986  0.94360  1.0000
  H   H4        1.0  0.10683  0.04385  0.03140  1.0000
  H   H5        1.0  0.13145  0.99279  0.04642  1.0000
  H   H6        1.0  0.04545  0.00320  0.02561  1.0000
  H   H7        1.0  0.06314  0.99670  0.97053  1.0000
  H   H8        1.0  0.09519  0.92117  0.99016  1.0000
  H   H9        1.0  0.08074  0.93009  0.04657  1.0000
  H   H10       1.0  0.01979  0.91449  0.97042  1.0000
  H   H11       1.0  0.97518  0.85375  0.97296  1.0000
  H   H12       1.0  0.90042  0.82938  0.94915  1.0000
  H   H13       1.0  0.83304  0.86318  0.98210  1.0000
  H   H14       1.0  0.83237  0.92589  0.08225  1.0000
  H   H15       1.0  0.79868  0.90885  0.03755  1.0000
  H   H16       1.0  0.80504  0.01279  0.08955  1.0000
  H   H17       1.0  0.76585  0.97100  0.07828  1.0000
  H   H18       1.0  0.74427  0.05445  0.06626  1.0000
  H   H19       1.0  0.72577  0.01359  0.02786  1.0000
  H   H20       1.0  0.74430  0.11846  0.01337  1.0000
  H   H21       1.0  0.77980  0.15449  0.94814  1.0000
  H   H22       1.0  0.83152  0.11167  0.89995  1.0000
  H   H23       1.0  0.84788  0.03265  0.91639  1.0000
  H   H24       1.0  0.78410  0.96265  0.97474  1.0000
  H   H25       1.0  0.84208  0.97029  0.96673  1.0000
  H   H26       1.0  0.91539  0.94849  0.06336  1.0000
  H   H27       1.0  0.16994  0.07470  0.01588  1.0000
  H   H28       1.0  0.20773  0.01109  0.05416  1.0000
  H   H29       1.0  0.23825  0.99952  0.00527  1.0000
  H   H30       1.0  0.24241  0.08461  0.06059  1.0000
  H   H31       1.0  0.28394  0.04342  0.05599  1.0000
  H   H32       1.0  0.30001  0.11022  0.00875  1.0000
  H   H33       1.0  0.29595  0.06096  0.97710  1.0000
  H   H34       1.0  0.22446  0.13273  0.98745  1.0000
  H   H35       1.0  0.25548  0.12065  0.93909  1.0000
  H   H36       1.0  0.22069  0.04756  0.93207  1.0000
  H   H37       1.0  0.17897  0.08880  0.93591  1.0000
