data_image0
_chemical_formula_structural       CNC12NCOCOC7O2C2H20
_chemical_formula_sum              "C24 N2 O4 H20"
_cell_length_a       30
_cell_length_b       30
_cell_length_c       30
_cell_angle_alpha    90
_cell_angle_beta     90
_cell_angle_gamma    90

_space_group_name_H-M_alt    "P 1"
_space_group_IT_number       1

loop_
  _space_group_symop_operation_xyz
  'x, y, z'

loop_
  _atom_site_type_symbol
  _atom_site_label
  _atom_site_symmetry_multiplicity
  _atom_site_fract_x
  _atom_site_fract_y
  _atom_site_fract_z
  _atom_site_occupancy
  C   C1        1.0  0.03348  0.02545  0.92605  1.0000
  N   N1        1.0  0.99981  0.01392  0.95915  1.0000
  C   C2        1.0  0.95461  0.03027  0.95134  1.0000
  C   C3        1.0  0.93102  0.99896  0.92022  1.0000
  C   C4        1.0  0.89096  0.97962  0.92551  1.0000
  C   C5        1.0  0.86072  0.98350  0.96358  1.0000
  C   C6        1.0  0.87306  0.97072  0.00623  1.0000
  C   C7        1.0  0.84176  0.97415  0.04028  1.0000
  C   C8        1.0  0.79892  0.98991  0.03078  1.0000
  C   C9        1.0  0.76624  0.99401  0.06414  1.0000
  C   C10       1.0  0.72374  0.00946  0.05351  1.0000
  C   C11       1.0  0.71388  0.02101  0.00971  1.0000
  C   C12       1.0  0.74656  0.01698  0.97669  1.0000
  C   C13       1.0  0.78913  0.00153  0.98626  1.0000
  N   N2        1.0  0.81929  0.99807  0.95325  1.0000
  C   C14       1.0  0.01020  0.99615  0.00081  1.0000
  O   O1        1.0  0.98154  0.98894  0.02947  1.0000
  C   C15       1.0  0.05885  0.98386  0.01043  1.0000
  O   O2        1.0  0.08690  0.02194  0.00687  1.0000
  C   C16       1.0  0.13128  0.01594  0.01530  1.0000
  C   C17       1.0  0.15742  0.05418  0.00954  1.0000
  C   C18       1.0  0.20345  0.05322  0.01704  1.0000
  C   C19       1.0  0.22377  0.01368  0.03050  1.0000
  C   C20       1.0  0.27138  0.01068  0.03890  1.0000
  C   C21       1.0  0.28897  0.97185  0.05188  1.0000
  C   C22       1.0  0.26184  0.93133  0.05796  1.0000
  O   O3        1.0  0.27916  0.89623  0.06963  1.0000
  O   O4        1.0  0.21643  0.93509  0.04987  1.0000
  C   C23       1.0  0.19744  0.97587  0.03618  1.0000
  C   C24       1.0  0.15151  0.97637  0.02875  1.0000
  H   H1        1.0  0.04708  0.05834  0.93427  1.0000
  H   H2        1.0  0.06040  0.00087  0.92568  1.0000
  H   H3        1.0  0.01870  0.02655  0.89272  1.0000
  H   H4        1.0  0.93683  0.03462  0.98282  1.0000
  H   H5        1.0  0.95699  0.06335  0.93601  1.0000
  H   H6        1.0  0.94773  0.99281  0.88865  1.0000
  H   H7        1.0  0.87726  0.95982  0.89840  1.0000
  H   H8        1.0  0.90622  0.95809  0.01314  1.0000
  H   H9        1.0  0.85111  0.96448  0.07391  1.0000
  H   H10       1.0  0.77378  0.98513  0.09848  1.0000
  H   H11       1.0  0.69854  0.01261  0.07935  1.0000
  H   H12       1.0  0.68091  0.03320  0.00107  1.0000
  H   H13       1.0  0.73860  0.02609  0.94252  1.0000
  H   H14       1.0  0.06883  0.95759  0.98710  1.0000
  H   H15       1.0  0.06002  0.97079  0.04458  1.0000
  H   H16       1.0  0.14173  0.08521  0.99914  1.0000
  H   H17       1.0  0.22281  0.08350  0.01229  1.0000
  H   H18       1.0  0.29197  0.04009  0.03468  1.0000
  H   H19       1.0  0.32430  0.96816  0.05851  1.0000
  H   H20       1.0  0.13291  0.94581  0.03394  1.0000
