data_image0
_chemical_formula_structural       CNC4ClC4O2C5OH18
_chemical_formula_sum              "C14 N1 Cl1 O3 H18"
_cell_length_a       30
_cell_length_b       30
_cell_length_c       30
_cell_angle_alpha    90
_cell_angle_beta     90
_cell_angle_gamma    90

_space_group_name_H-M_alt    "P 1"
_space_group_IT_number       1

loop_
  _space_group_symop_operation_xyz
  'x, y, z'

loop_
  _atom_site_type_symbol
  _atom_site_label
  _atom_site_symmetry_multiplicity
  _atom_site_fract_x
  _atom_site_fract_y
  _atom_site_fract_z
  _atom_site_occupancy
  C   C1        1.0  0.90149  0.97419  0.93901  1.0000
  N   N1        1.0  0.88600  0.97606  0.98518  1.0000
  C   C2        1.0  0.88133  0.93254  0.00692  1.0000
  C   C3        1.0  0.90615  0.00780  0.01326  1.0000
  C   C4        1.0  0.87680  0.03287  0.04009  1.0000
  C   C5        1.0  0.89224  0.06618  0.06867  1.0000
  Cl  Cl1       1.0  0.85500  0.09603  0.10047  1.0000
  C   C6        1.0  0.93752  0.07546  0.07157  1.0000
  C   C7        1.0  0.96745  0.05095  0.04586  1.0000
  C   C8        1.0  0.95203  0.01727  0.01695  1.0000
  C   C9        1.0  0.98665  0.99142  0.99342  1.0000
  O   O1        1.0  0.99215  0.95128  0.99652  1.0000
  O   O2        1.0  0.01121  0.02017  0.96866  1.0000
  C   C10       1.0  0.04854  0.00068  0.94567  1.0000
  C   C11       1.0  0.08760  0.99274  0.97747  1.0000
  C   C12       1.0  0.12666  0.96925  0.95543  1.0000
  C   C13       1.0  0.16497  0.98402  0.98442  1.0000
  C   C14       1.0  0.15273  0.03195  0.99436  1.0000
  O   O3        1.0  0.10497  0.03468  0.99354  1.0000
  H   H1        1.0  0.93144  0.95376  0.93512  1.0000
  H   H2        1.0  0.90782  0.00759  0.92566  1.0000
  H   H3        1.0  0.87543  0.95919  0.91828  1.0000
  H   H4        1.0  0.86153  0.91021  0.98586  1.0000
  H   H5        1.0  0.91370  0.91673  0.01278  1.0000
  H   H6        1.0  0.86378  0.93547  0.03883  1.0000
  H   H7        1.0  0.84118  0.02635  0.03788  1.0000
  H   H8        1.0  0.94972  0.10136  0.09376  1.0000
  H   H9        1.0  0.00300  0.05781  0.04854  1.0000
  H   H10       1.0  0.03823  0.96986  0.92893  1.0000
  H   H11       1.0  0.05808  0.02464  0.91982  1.0000
  H   H12       1.0  0.07680  0.97425  0.00707  1.0000
  H   H13       1.0  0.12254  0.93305  0.95422  1.0000
  H   H14       1.0  0.13170  0.98139  0.92132  1.0000
  H   H15       1.0  0.16532  0.96456  0.01536  1.0000
  H   H16       1.0  0.19758  0.98067  0.96851  1.0000
  H   H17       1.0  0.16554  0.05446  0.96863  1.0000
  H   H18       1.0  0.16512  0.04311  0.02678  1.0000
