data_image0
_chemical_formula_structural       CNC2NCONC3N2C7OCF2CF2C2H21
_chemical_formula_sum              "C18 N5 O2 F4 H21"
_cell_length_a       30
_cell_length_b       30
_cell_length_c       30
_cell_angle_alpha    90
_cell_angle_beta     90
_cell_angle_gamma    90

_space_group_name_H-M_alt    "P 1"
_space_group_IT_number       1

loop_
  _space_group_symop_operation_xyz
  'x, y, z'

loop_
  _atom_site_type_symbol
  _atom_site_label
  _atom_site_symmetry_multiplicity
  _atom_site_fract_x
  _atom_site_fract_y
  _atom_site_fract_z
  _atom_site_occupancy
  C   C1        1.0  0.19913  0.05549  0.98855  1.0000
  N   N1        1.0  0.15135  0.05153  0.99699  1.0000
  C   C2        1.0  0.12981  0.02358  0.96285  1.0000
  C   C3        1.0  0.08263  0.00848  0.97624  1.0000
  N   N2        1.0  0.08227  0.98350  0.01828  1.0000
  C   C4        1.0  0.04943  0.95369  0.03184  1.0000
  O   O1        1.0  0.05501  0.92935  0.06432  1.0000
  N   N3        1.0  0.01148  0.95446  0.00582  1.0000
  C   C5        1.0  0.97465  0.92762  0.01356  1.0000
  C   C6        1.0  0.96704  0.89405  0.04399  1.0000
  C   C7        1.0  0.92289  0.88026  0.03668  1.0000
  N   N4        1.0  0.90330  0.90267  0.00363  1.0000
  N   N5        1.0  0.93562  0.93088  0.98942  1.0000
  C   C8        1.0  0.92691  0.95793  0.94990  1.0000
  C   C9        1.0  0.92939  0.00766  0.95773  1.0000
  C   C10       1.0  0.95124  0.03403  0.92563  1.0000
  C   C11       1.0  0.95505  0.08007  0.93102  1.0000
  C   C12       1.0  0.93705  0.10053  0.96853  1.0000
  C   C13       1.0  0.91465  0.07507  0.00027  1.0000
  C   C14       1.0  0.90964  0.02911  0.99436  1.0000
  O   O2        1.0  0.88957  0.00455  0.02704  1.0000
  C   C15       1.0  0.84212  0.00983  0.03042  1.0000
  F   F1        1.0  0.83178  0.00075  0.07380  1.0000
  F   F2        1.0  0.83023  0.05309  0.02391  1.0000
  C   C16       1.0  0.81584  0.97837  0.00002  1.0000
  F   F3        1.0  0.82355  0.98739  0.95618  1.0000
  F   F4        1.0  0.77111  0.98367  0.00604  1.0000
  C   C17       1.0  0.12188  0.98871  0.04633  1.0000
  C   C18       1.0  0.14204  0.03581  0.04277  1.0000
  H   H1        1.0  0.21634  0.02343  0.99184  1.0000
  H   H2        1.0  0.21432  0.07918  0.01182  1.0000
  H   H3        1.0  0.20523  0.06846  0.95496  1.0000
  H   H4        1.0  0.12780  0.04232  0.93155  1.0000
  H   H5        1.0  0.14993  0.99368  0.95632  1.0000
  H   H6        1.0  0.06073  0.03742  0.98058  1.0000
  H   H7        1.0  0.06868  0.98763  0.94970  1.0000
  H   H8        1.0  0.00781  0.98068  0.98522  1.0000
  H   H9        1.0  0.98994  0.88147  0.06880  1.0000
  H   H10       1.0  0.90428  0.85478  0.05418  1.0000
  H   H11       1.0  0.89394  0.94913  0.93693  1.0000
  H   H12       1.0  0.95164  0.94722  0.92518  1.0000
  H   H13       1.0  0.96558  0.01885  0.89593  1.0000
  H   H14       1.0  0.97211  0.10002  0.90602  1.0000
  H   H15       1.0  0.94035  0.13633  0.97313  1.0000
  H   H16       1.0  0.90121  0.09133  0.02976  1.0000
  H   H17       1.0  0.82395  0.94346  0.00622  1.0000
  H   H18       1.0  0.11360  0.98166  0.08119  1.0000
  H   H19       1.0  0.14620  0.96364  0.03553  1.0000
  H   H20       1.0  0.17172  0.03780  0.06405  1.0000
  H   H21       1.0  0.11796  0.05936  0.05706  1.0000
