data_image0
_chemical_formula_structural       CNC2OC2ONC4NCClC5H20
_chemical_formula_sum              "C15 N3 O2 Cl1 H20"
_cell_length_a       30
_cell_length_b       30
_cell_length_c       30
_cell_angle_alpha    90
_cell_angle_beta     90
_cell_angle_gamma    90

_space_group_name_H-M_alt    "P 1"
_space_group_IT_number       1

loop_
  _space_group_symop_operation_xyz
  'x, y, z'

loop_
  _atom_site_type_symbol
  _atom_site_label
  _atom_site_symmetry_multiplicity
  _atom_site_fract_x
  _atom_site_fract_y
  _atom_site_fract_z
  _atom_site_occupancy
  C   C1        1.0  0.83192  0.99482  0.01131  1.0000
  N   N1        1.0  0.87393  0.01795  0.01987  1.0000
  C   C2        1.0  0.87648  0.05953  0.99368  1.0000
  C   C3        1.0  0.92489  0.07525  0.98866  1.0000
  O   O1        1.0  0.95200  0.04464  0.96383  1.0000
  C   C4        1.0  0.93742  0.99937  0.96696  1.0000
  C   C5        1.0  0.97406  0.96365  0.96009  1.0000
  O   O2        1.0  0.96503  0.93026  0.93766  1.0000
  N   N2        1.0  0.01501  0.96782  0.98178  1.0000
  C   C6        1.0  0.04634  0.93049  0.97852  1.0000
  C   C7        1.0  0.08263  0.93719  0.94328  1.0000
  C   C8        1.0  0.10620  0.98239  0.94491  1.0000
  C   C9        1.0  0.11395  0.99850  0.99188  1.0000
  N   N3        1.0  0.15661  0.99868  0.00658  1.0000
  C   C10       1.0  0.16347  0.01193  0.04895  1.0000
  Cl  Cl1       1.0  0.21818  0.01157  0.06549  1.0000
  C   C11       1.0  0.13010  0.02495  0.07795  1.0000
  C   C12       1.0  0.08640  0.02437  0.06244  1.0000
  C   C13       1.0  0.07762  0.01077  0.01869  1.0000
  C   C14       1.0  0.03064  0.01030  0.00057  1.0000
  C   C15       1.0  0.91294  0.98897  0.01110  1.0000
  H   H1        1.0  0.82865  0.96578  0.03321  1.0000
  H   H2        1.0  0.80355  0.01666  0.01856  1.0000
  H   H3        1.0  0.82923  0.98349  0.97668  1.0000
  H   H4        1.0  0.86250  0.05455  0.96023  1.0000
  H   H5        1.0  0.85681  0.08539  0.01035  1.0000
  H   H6        1.0  0.94042  0.08030  0.02135  1.0000
  H   H7        1.0  0.92592  0.10727  0.97118  1.0000
  H   H8        1.0  0.91407  0.99455  0.93915  1.0000
  H   H9        1.0  0.06086  0.92485  0.01160  1.0000
  H   H10       1.0  0.02836  0.89963  0.97081  1.0000
  H   H11       1.0  0.10736  0.91057  0.94747  1.0000
  H   H12       1.0  0.06838  0.93284  0.90989  1.0000
  H   H13       1.0  0.08677  0.00747  0.92672  1.0000
  H   H14       1.0  0.13808  0.97990  0.92718  1.0000
  H   H15       1.0  0.13773  0.03529  0.11172  1.0000
  H   H16       1.0  0.05949  0.03445  0.08453  1.0000
  H   H17       1.0  0.02892  0.03574  0.97443  1.0000
  H   H18       1.0  0.00721  0.01992  0.02684  1.0000
  H   H19       1.0  0.93602  0.99441  0.03894  1.0000
  H   H20       1.0  0.90390  0.95355  0.01283  1.0000
