data_image0
_chemical_formula_structural       CNC2NC2NCOC4FC2BrC2H19
_chemical_formula_sum              "C14 N3 O1 F1 Br1 H19"
_cell_length_a       30
_cell_length_b       30
_cell_length_c       30
_cell_angle_alpha    90
_cell_angle_beta     90
_cell_angle_gamma    90

_space_group_name_H-M_alt    "P 1"
_space_group_IT_number       1

loop_
  _space_group_symop_operation_xyz
  'x, y, z'

loop_
  _atom_site_type_symbol
  _atom_site_label
  _atom_site_symmetry_multiplicity
  _atom_site_fract_x
  _atom_site_fract_y
  _atom_site_fract_z
  _atom_site_occupancy
  C   C1        1.0  0.83051  0.98114  0.03482  1.0000
  N   N1        1.0  0.83562  0.99271  0.98768  1.0000
  C   C2        1.0  0.85215  0.03864  0.98263  1.0000
  C   C3        1.0  0.90097  0.04663  0.99780  1.0000
  N   N2        1.0  0.92985  0.00666  0.99699  1.0000
  C   C4        1.0  0.97709  0.01941  0.99461  1.0000
  C   C5        1.0  0.00972  0.98068  0.00269  1.0000
  N   N3        1.0  0.05546  0.99634  0.00662  1.0000
  C   C6        1.0  0.09087  0.96914  0.99595  1.0000
  O   O1        1.0  0.08705  0.93321  0.97687  1.0000
  C   C7        1.0  0.13614  0.98633  0.00651  1.0000
  C   C8        1.0  0.16861  0.98010  0.97323  1.0000
  C   C9        1.0  0.21212  0.99526  0.97948  1.0000
  C   C10       1.0  0.22329  0.01637  0.01910  1.0000
  F   F1        1.0  0.26501  0.03096  0.02522  1.0000
  C   C11       1.0  0.19193  0.02236  0.05269  1.0000
  C   C12       1.0  0.14822  0.00717  0.04663  1.0000
  Br  Br1       1.0  0.10875  0.01465  0.09560  1.0000
  C   C13       1.0  0.91584  0.97674  0.96078  1.0000
  C   C14       1.0  0.86647  0.96154  0.96514  1.0000
  H   H1        1.0  0.80776  0.00451  0.05128  1.0000
  H   H2        1.0  0.86200  0.98099  0.05326  1.0000
  H   H3        1.0  0.81535  0.94806  0.03808  1.0000
  H   H4        1.0  0.82996  0.06215  0.99974  1.0000
  H   H5        1.0  0.84970  0.04721  0.94711  1.0000
  H   H6        1.0  0.90065  0.05926  0.03211  1.0000
  H   H7        1.0  0.91477  0.07315  0.97668  1.0000
  H   H8        1.0  0.98359  0.04466  0.02032  1.0000
  H   H9        1.0  0.98473  0.03525  0.96250  1.0000
  H   H10       1.0  0.00786  0.95621  0.97570  1.0000
  H   H11       1.0  0.00176  0.96355  0.03397  1.0000
  H   H12       1.0  0.06118  0.02231  0.02740  1.0000
  H   H13       1.0  0.15983  0.96335  0.94222  1.0000
  H   H14       1.0  0.23722  0.99060  0.95382  1.0000
  H   H15       1.0  0.20225  0.03849  0.08342  1.0000
  H   H16       1.0  0.92031  0.99349  0.92853  1.0000
  H   H17       1.0  0.93637  0.94656  0.96010  1.0000
  H   H18       1.0  0.85367  0.95597  0.93132  1.0000
  H   H19       1.0  0.86537  0.92875  0.98137  1.0000
