data_image0
_chemical_formula_structural       CNC2NC9OC7H30
_chemical_formula_sum              "C19 N2 O1 H30"
_cell_length_a       30
_cell_length_b       30
_cell_length_c       30
_cell_angle_alpha    90
_cell_angle_beta     90
_cell_angle_gamma    90

_space_group_name_H-M_alt    "P 1"
_space_group_IT_number       1

loop_
  _space_group_symop_operation_xyz
  'x, y, z'

loop_
  _atom_site_type_symbol
  _atom_site_label
  _atom_site_symmetry_multiplicity
  _atom_site_fract_x
  _atom_site_fract_y
  _atom_site_fract_z
  _atom_site_occupancy
  C   C1        1.0  0.91731  0.08770  0.98652  1.0000
  N   N1        1.0  0.87973  0.06857  0.00966  1.0000
  C   C2        1.0  0.83723  0.08503  0.00873  1.0000
  C   C3        1.0  0.81301  0.05709  0.03573  1.0000
  N   N2        1.0  0.83949  0.02396  0.05254  1.0000
  C   C4        1.0  0.87971  0.03116  0.03621  1.0000
  C   C5        1.0  0.91991  0.00318  0.04573  1.0000
  C   C6        1.0  0.93117  0.97059  0.00749  1.0000
  C   C7        1.0  0.89698  0.93212  0.00406  1.0000
  C   C8        1.0  0.91334  0.88944  0.02618  1.0000
  C   C9        1.0  0.95632  0.87249  0.00480  1.0000
  C   C10       1.0  0.98621  0.90982  0.98703  1.0000
  C   C11       1.0  0.97970  0.95318  0.01311  1.0000
  C   C12       1.0  0.01415  0.98821  0.99870  1.0000
  O   O1        1.0  0.00329  0.02150  0.97726  1.0000
  C   C13       1.0  0.06214  0.98033  0.01364  1.0000
  C   C14       1.0  0.09432  0.01821  0.00097  1.0000
  C   C15       1.0  0.13816  0.01393  0.02693  1.0000
  C   C16       1.0  0.16951  0.05320  0.01811  1.0000
  C   C17       1.0  0.16460  0.07319  0.97149  1.0000
  C   C18       1.0  0.14898  0.03863  0.93787  1.0000
  C   C19       1.0  0.10340  0.01929  0.95030  1.0000
  H   H1        1.0  0.94561  0.08974  0.00933  1.0000
  H   H2        1.0  0.92503  0.06671  0.95780  1.0000
  H   H3        1.0  0.90872  0.12130  0.97524  1.0000
  H   H4        1.0  0.82801  0.11433  0.98992  1.0000
  H   H5        1.0  0.77794  0.05909  0.04401  1.0000
  H   H6        1.0  0.94814  0.02530  0.05270  1.0000
  H   H7        1.0  0.91418  0.98436  0.07656  1.0000
  H   H8        1.0  0.92873  0.98889  0.97589  1.0000
  H   H9        1.0  0.89079  0.92512  0.96865  1.0000
  H   H10       1.0  0.86467  0.94160  0.01818  1.0000
  H   H11       1.0  0.91897  0.89569  0.06177  1.0000
  H   H12       1.0  0.88768  0.86353  0.02416  1.0000
  H   H13       1.0  0.97462  0.85271  0.02949  1.0000
  H   H14       1.0  0.94842  0.84972  0.97732  1.0000
  H   H15       1.0  0.97864  0.91574  0.95169  1.0000
  H   H16       1.0  0.02090  0.89847  0.98794  1.0000
  H   H17       1.0  0.98583  0.94670  0.04864  1.0000
  H   H18       1.0  0.07399  0.94878  0.99960  1.0000
  H   H19       1.0  0.06124  0.97688  0.05005  1.0000
  H   H20       1.0  0.07896  0.05010  0.01045  1.0000
  H   H21       1.0  0.13182  0.01162  0.06285  1.0000
  H   H22       1.0  0.15491  0.98281  0.01742  1.0000
  H   H23       1.0  0.16363  0.07952  0.04279  1.0000
  H   H24       1.0  0.20394  0.04202  0.02322  1.0000
  H   H25       1.0  0.14049  0.10070  0.97258  1.0000
  H   H26       1.0  0.19644  0.08771  0.96095  1.0000
  H   H27       1.0  0.14735  0.05327  0.90445  1.0000
  H   H28       1.0  0.17355  0.01159  0.93618  1.0000
  H   H29       1.0  0.10078  0.98584  0.93570  1.0000
  H   H30       1.0  0.07737  0.03935  0.93421  1.0000
