data_image0
_chemical_formula_structural       CNC6NCSNC10H23
_chemical_formula_sum              "C18 N3 S1 H23"
_cell_length_a       30
_cell_length_b       30
_cell_length_c       30
_cell_angle_alpha    90
_cell_angle_beta     90
_cell_angle_gamma    90

_space_group_name_H-M_alt    "P 1"
_space_group_IT_number       1

loop_
  _space_group_symop_operation_xyz
  'x, y, z'

loop_
  _atom_site_type_symbol
  _atom_site_label
  _atom_site_symmetry_multiplicity
  _atom_site_fract_x
  _atom_site_fract_y
  _atom_site_fract_z
  _atom_site_occupancy
  C   C1        1.0  0.93264  0.04190  0.92830  1.0000
  N   N1        1.0  0.91371  0.05031  0.97189  1.0000
  C   C2        1.0  0.88824  0.08758  0.97994  1.0000
  C   C3        1.0  0.87549  0.08731  0.02380  1.0000
  C   C4        1.0  0.89365  0.04847  0.04300  1.0000
  C   C5        1.0  0.91698  0.02497  0.01048  1.0000
  C   C6        1.0  0.94294  0.98084  0.01541  1.0000
  C   C7        1.0  0.99345  0.99182  0.01762  1.0000
  N   N2        1.0  0.02345  0.95360  0.01938  1.0000
  C   C8        1.0  0.06887  0.95294  0.01435  1.0000
  S   S1        1.0  0.09241  0.90253  0.01396  1.0000
  N   N3        1.0  0.08849  0.99414  0.01126  1.0000
  C   C9        1.0  0.13175  0.00743  0.99821  1.0000
  C   C10       1.0  0.14500  0.05063  0.01024  1.0000
  C   C11       1.0  0.18690  0.06707  0.99823  1.0000
  C   C12       1.0  0.21592  0.04064  0.97355  1.0000
  C   C13       1.0  0.20284  0.99802  0.96070  1.0000
  C   C14       1.0  0.16087  0.98160  0.97277  1.0000
  C   C15       1.0  0.92973  0.94616  0.97972  1.0000
  C   C16       1.0  0.88439  0.92842  0.99476  1.0000
  C   C17       1.0  0.88406  0.93264  0.04545  1.0000
  C   C18       1.0  0.92824  0.95486  0.05774  1.0000
  H   H1        1.0  0.96376  0.02347  0.93122  1.0000
  H   H2        1.0  0.90819  0.02325  0.90878  1.0000
  H   H3        1.0  0.93961  0.07380  0.91206  1.0000
  H   H4        1.0  0.88132  0.11139  0.95372  1.0000
  H   H5        1.0  0.85535  0.11235  0.04019  1.0000
  H   H6        1.0  0.88964  0.03869  0.07749  1.0000
  H   H7        1.0  0.00029  0.01190  0.04744  1.0000
  H   H8        1.0  0.00375  0.01201  0.98905  1.0000
  H   H9        1.0  0.01019  0.92272  0.02315  1.0000
  H   H10       1.0  0.07037  0.01870  0.02545  1.0000
  H   H11       1.0  0.12307  0.07200  0.02961  1.0000
  H   H12       1.0  0.19681  0.10046  0.00820  1.0000
  H   H13       1.0  0.24855  0.05325  0.96413  1.0000
  H   H14       1.0  0.22515  0.97738  0.94097  1.0000
  H   H15       1.0  0.15173  0.94881  0.96068  1.0000
  H   H16       1.0  0.92806  0.95856  0.94562  1.0000
  H   H17       1.0  0.95328  0.91820  0.97925  1.0000
  H   H18       1.0  0.87933  0.89393  0.98396  1.0000
  H   H19       1.0  0.85741  0.94845  0.98040  1.0000
  H   H20       1.0  0.88081  0.90010  0.06166  1.0000
  H   H21       1.0  0.85572  0.95302  0.05620  1.0000
  H   H22       1.0  0.95219  0.92840  0.06576  1.0000
  H   H23       1.0  0.92542  0.97528  0.08781  1.0000
