data_image0
_chemical_formula_structural       CNCOC2NCNC2ONC5NC2ONC6NC2OH33
_chemical_formula_sum              "C22 N7 O4 H33"
_cell_length_a       30
_cell_length_b       30
_cell_length_c       30
_cell_angle_alpha    90
_cell_angle_beta     90
_cell_angle_gamma    90

_space_group_name_H-M_alt    "P 1"
_space_group_IT_number       1

loop_
  _space_group_symop_operation_xyz
  'x, y, z'

loop_
  _atom_site_type_symbol
  _atom_site_label
  _atom_site_symmetry_multiplicity
  _atom_site_fract_x
  _atom_site_fract_y
  _atom_site_fract_z
  _atom_site_occupancy
  C   C1        1.0  0.84454  0.02577  0.09157  1.0000
  N   N1        1.0  0.84328  0.03828  0.04491  1.0000
  C   C2        1.0  0.86840  0.01312  0.01480  1.0000
  O   O1        1.0  0.89083  0.98037  0.02484  1.0000
  C   C3        1.0  0.86492  0.02888  0.97027  1.0000
  C   C4        1.0  0.83872  0.06397  0.95832  1.0000
  N   N2        1.0  0.84093  0.07242  0.91377  1.0000
  C   C5        1.0  0.86939  0.04268  0.89836  1.0000
  N   N3        1.0  0.88444  0.01501  0.93150  1.0000
  C   C6        1.0  0.91374  0.97691  0.92556  1.0000
  C   C7        1.0  0.96147  0.98700  0.93915  1.0000
  O   O2        1.0  0.97703  0.02481  0.93458  1.0000
  N   N4        1.0  0.98704  0.95056  0.95300  1.0000
  C   C8        1.0  0.96970  0.90965  0.97347  1.0000
  C   C9        1.0  0.00510  0.89660  0.00780  1.0000
  C   C10       1.0  0.99587  0.91947  0.05286  1.0000
  C   C11       1.0  0.00751  0.84613  0.01456  1.0000
  C   C12       1.0  0.04761  0.91504  0.98625  1.0000
  N   N5        1.0  0.03288  0.95696  0.96474  1.0000
  C   C13       1.0  0.06142  0.96711  0.92562  1.0000
  C   C14       1.0  0.10798  0.98006  0.94175  1.0000
  O   O3        1.0  0.14191  0.96121  0.92874  1.0000
  N   N6        1.0  0.10775  0.01487  0.97191  1.0000
  C   C15       1.0  0.14752  0.02833  0.99599  1.0000
  C   C16       1.0  0.14269  0.07644  0.01247  1.0000
  C   C17       1.0  0.18310  0.09110  0.03967  1.0000
  C   C18       1.0  0.19242  0.05924  0.07820  1.0000
  C   C19       1.0  0.19708  0.01122  0.06217  1.0000
  C   C20       1.0  0.15667  0.99648  0.03499  1.0000
  N   N7        1.0  0.81321  0.08658  0.98891  1.0000
  C   C21       1.0  0.78483  0.12306  0.97456  1.0000
  C   C22       1.0  0.81463  0.07383  0.03363  1.0000
  O   O4        1.0  0.79164  0.09244  0.06230  1.0000
  H   H1        1.0  0.81205  0.01194  0.10083  1.0000
  H   H2        1.0  0.87041  0.00110  0.09862  1.0000
  H   H3        1.0  0.85075  0.05540  0.11197  1.0000
  H   H4        1.0  0.87996  0.03964  0.86397  1.0000
  H   H5        1.0  0.91375  0.96818  0.89008  1.0000
  H   H6        1.0  0.89875  0.94920  0.94368  1.0000
  H   H7        1.0  0.96650  0.88503  0.94660  1.0000
  H   H8        1.0  0.93710  0.91472  0.98890  1.0000
  H   H9        1.0  0.96408  0.90822  0.06692  1.0000
  H   H10       1.0  0.02213  0.91160  0.07703  1.0000
  H   H11       1.0  0.99426  0.95585  0.04976  1.0000
  H   H12       1.0  0.03501  0.83724  0.03689  1.0000
  H   H13       1.0  0.97658  0.83342  0.02919  1.0000
  H   H14       1.0  0.01278  0.82857  0.98295  1.0000
  H   H15       1.0  0.07399  0.92130  0.01072  1.0000
  H   H16       1.0  0.06021  0.89116  0.96151  1.0000
  H   H17       1.0  0.04868  0.99551  0.90656  1.0000
  H   H18       1.0  0.06376  0.93870  0.90270  1.0000
  H   H19       1.0  0.07734  0.02222  0.98502  1.0000
  H   H20       1.0  0.17573  0.02660  0.97275  1.0000
  H   H21       1.0  0.13820  0.09899  0.98403  1.0000
  H   H22       1.0  0.11251  0.07960  0.03295  1.0000
  H   H23       1.0  0.17762  0.12477  0.05275  1.0000
  H   H24       1.0  0.21242  0.09280  0.01790  1.0000
  H   H25       1.0  0.16535  0.06144  0.10272  1.0000
  H   H26       1.0  0.22301  0.06944  0.09537  1.0000
  H   H27       1.0  0.22724  0.00815  0.04169  1.0000
  H   H28       1.0  0.20146  0.98902  0.09088  1.0000
  H   H29       1.0  0.16210  0.96250  0.02265  1.0000
  H   H30       1.0  0.12731  0.99489  0.05683  1.0000
  H   H31       1.0  0.80543  0.14883  0.95895  1.0000
  H   H32       1.0  0.76664  0.13793  0.00239  1.0000
  H   H33       1.0  0.76065  0.11042  0.95029  1.0000
