data_image0
_chemical_formula_structural       CNC5N3C6H16
_chemical_formula_sum              "C12 N4 H16"
_cell_length_a       30
_cell_length_b       30
_cell_length_c       30
_cell_angle_alpha    90
_cell_angle_beta     90
_cell_angle_gamma    90

_space_group_name_H-M_alt    "P 1"
_space_group_IT_number       1

loop_
  _space_group_symop_operation_xyz
  'x, y, z'

loop_
  _atom_site_type_symbol
  _atom_site_label
  _atom_site_symmetry_multiplicity
  _atom_site_fract_x
  _atom_site_fract_y
  _atom_site_fract_z
  _atom_site_occupancy
  C   C1        1.0  0.01121  0.95312  0.93460  1.0000
  N   N1        1.0  0.00889  0.98262  0.97351  1.0000
  C   C2        1.0  0.04099  0.01896  0.96916  1.0000
  C   C3        1.0  0.06293  0.02837  0.01441  1.0000
  C   C4        1.0  0.09714  0.99320  0.03105  1.0000
  C   C5        1.0  0.13429  0.02219  0.01071  1.0000
  C   C6        1.0  0.10220  0.06213  0.01402  1.0000
  N   N2        1.0  0.01553  0.05867  0.95579  1.0000
  N   N3        1.0  0.97450  0.05097  0.95859  1.0000
  N   N4        1.0  0.96909  0.00713  0.97003  1.0000
  C   C7        1.0  0.93033  0.99476  0.99449  1.0000
  C   C8        1.0  0.89201  0.02181  0.99416  1.0000
  C   C9        1.0  0.85361  0.00984  0.01774  1.0000
  C   C10       1.0  0.85268  0.97041  0.04215  1.0000
  C   C11       1.0  0.89008  0.94298  0.04296  1.0000
  C   C12       1.0  0.92842  0.95505  0.01933  1.0000
  H   H1        1.0  0.00755  0.97091  0.90285  1.0000
  H   H2        1.0  0.04321  0.93551  0.93420  1.0000
  H   H3        1.0  0.98521  0.92751  0.93627  1.0000
  H   H4        1.0  0.06659  0.01221  0.94392  1.0000
  H   H5        1.0  0.03785  0.03657  0.03984  1.0000
  H   H6        1.0  0.09888  0.99078  0.06748  1.0000
  H   H7        1.0  0.09421  0.95959  0.01728  1.0000
  H   H8        1.0  0.16485  0.02480  0.03036  1.0000
  H   H9        1.0  0.14301  0.01307  0.97644  1.0000
  H   H10       1.0  0.10551  0.08089  0.04522  1.0000
  H   H11       1.0  0.10343  0.08556  0.98615  1.0000
  H   H12       1.0  0.89167  0.05270  0.97519  1.0000
  H   H13       1.0  0.82450  0.03139  0.01691  1.0000
  H   H14       1.0  0.82288  0.96109  0.06052  1.0000
  H   H15       1.0  0.88959  0.91217  0.06201  1.0000
  H   H16       1.0  0.95717  0.93305  0.02077  1.0000
