data_image0
_chemical_formula_structural       CNC5ONC2ONC16H27
_chemical_formula_sum              "C24 N3 O2 H27"
_cell_length_a       30
_cell_length_b       30
_cell_length_c       30
_cell_angle_alpha    90
_cell_angle_beta     90
_cell_angle_gamma    90

_space_group_name_H-M_alt    "P 1"
_space_group_IT_number       1

loop_
  _space_group_symop_operation_xyz
  'x, y, z'

loop_
  _atom_site_type_symbol
  _atom_site_label
  _atom_site_symmetry_multiplicity
  _atom_site_fract_x
  _atom_site_fract_y
  _atom_site_fract_z
  _atom_site_occupancy
  C   C1        1.0  0.21213  0.01612  0.03497  1.0000
  N   N1        1.0  0.18624  0.02124  0.99447  1.0000
  C   C2        1.0  0.20422  0.02022  0.95243  1.0000
  C   C3        1.0  0.17028  0.02559  0.92223  1.0000
  C   C4        1.0  0.13042  0.03042  0.94690  1.0000
  C   C5        1.0  0.14054  0.02781  0.99214  1.0000
  C   C6        1.0  0.11123  0.03030  0.03072  1.0000
  O   O1        1.0  0.12256  0.01898  0.06841  1.0000
  N   N2        1.0  0.06912  0.04676  0.02180  1.0000
  C   C7        1.0  0.03539  0.05283  0.05623  1.0000
  C   C8        1.0  0.99371  0.02480  0.04700  1.0000
  O   O2        1.0  0.95728  0.03418  0.06306  1.0000
  N   N3        1.0  0.00120  0.98742  0.02153  1.0000
  C   C9        1.0  0.96661  0.95551  0.00998  1.0000
  C   C10       1.0  0.94803  0.96426  0.96276  1.0000
  C   C11       1.0  0.92202  0.00802  0.95732  1.0000
  C   C12       1.0  0.87757  0.00859  0.98237  1.0000
  C   C13       1.0  0.85327  0.05205  0.97553  1.0000
  C   C14       1.0  0.82216  0.05690  0.94111  1.0000
  C   C15       1.0  0.80021  0.09745  0.93477  1.0000
  C   C16       1.0  0.80922  0.13355  0.96265  1.0000
  C   C17       1.0  0.84026  0.12910  0.99690  1.0000
  C   C18       1.0  0.86225  0.08859  0.00332  1.0000
  C   C19       1.0  0.98548  0.90863  0.01516  1.0000
  C   C20       1.0  0.01361  0.88920  0.98316  1.0000
  C   C21       1.0  0.03107  0.84649  0.98960  1.0000
  C   C22       1.0  0.02110  0.82283  0.02820  1.0000
  C   C23       1.0  0.99369  0.84178  0.06053  1.0000
  C   C24       1.0  0.97612  0.88442  0.05411  1.0000
  H   H1        1.0  0.20270  0.98476  0.05089  1.0000
  H   H2        1.0  0.20569  0.04457  0.05669  1.0000
  H   H3        1.0  0.24743  0.01548  0.02648  1.0000
  H   H4        1.0  0.23961  0.01541  0.94744  1.0000
  H   H5        1.0  0.17375  0.02575  0.88632  1.0000
  H   H6        1.0  0.09752  0.03466  0.93252  1.0000
  H   H7        1.0  0.06266  0.05969  0.99139  1.0000
  H   H8        1.0  0.04825  0.04401  0.08924  1.0000
  H   H9        1.0  0.02598  0.08812  0.05577  1.0000
  H   H10       1.0  0.03323  0.98015  0.01358  1.0000
  H   H11       1.0  0.93914  0.95915  0.03378  1.0000
  H   H12       1.0  0.97557  0.96519  0.93865  1.0000
  H   H13       1.0  0.92631  0.93650  0.95273  1.0000
  H   H14       1.0  0.94280  0.03637  0.96737  1.0000
  H   H15       1.0  0.91542  0.01273  0.92159  1.0000
  H   H16       1.0  0.85648  0.98091  0.97115  1.0000
  H   H17       1.0  0.88251  0.00357  0.01819  1.0000
  H   H18       1.0  0.81476  0.02914  0.91901  1.0000
  H   H19       1.0  0.77602  0.10100  0.90807  1.0000
  H   H20       1.0  0.79202  0.16505  0.95764  1.0000
  H   H21       1.0  0.84736  0.15724  0.01867  1.0000
  H   H22       1.0  0.88645  0.08544  0.03019  1.0000
  H   H23       1.0  0.02254  0.90701  0.95294  1.0000
  H   H24       1.0  0.05271  0.83188  0.96446  1.0000
  H   H25       1.0  0.03483  0.78967  0.03321  1.0000
  H   H26       1.0  0.98615  0.82367  0.09091  1.0000
  H   H27       1.0  0.95516  0.89882  0.08000  1.0000
