data_image0
_chemical_formula_structural       CNC8N2C3NOC2H24
_chemical_formula_sum              "C14 N4 O1 H24"
_cell_length_a       30
_cell_length_b       30
_cell_length_c       30
_cell_angle_alpha    90
_cell_angle_beta     90
_cell_angle_gamma    90

_space_group_name_H-M_alt    "P 1"
_space_group_IT_number       1

loop_
  _space_group_symop_operation_xyz
  'x, y, z'

loop_
  _atom_site_type_symbol
  _atom_site_label
  _atom_site_symmetry_multiplicity
  _atom_site_fract_x
  _atom_site_fract_y
  _atom_site_fract_z
  _atom_site_occupancy
  C   C1        1.0  0.90461  0.93248  0.97683  1.0000
  N   N1        1.0  0.94080  0.96231  0.98916  1.0000
  C   C2        1.0  0.96425  0.95271  0.03123  1.0000
  C   C3        1.0  0.92929  0.95991  0.06606  1.0000
  C   C4        1.0  0.91201  0.00572  0.04756  1.0000
  C   C5        1.0  0.92754  0.00770  0.99774  1.0000
  C   C6        1.0  0.96939  0.03720  0.98704  1.0000
  C   C7        1.0  0.95680  0.08483  0.97812  1.0000
  C   C8        1.0  0.93160  0.09696  0.93619  1.0000
  C   C9        1.0  0.97926  0.11096  0.94130  1.0000
  N   N2        1.0  0.01258  0.03055  0.98602  1.0000
  N   N3        1.0  0.03952  0.99305  0.99291  1.0000
  C   C10       1.0  0.08705  0.00412  0.99669  1.0000
  C   C11       1.0  0.10698  0.98697  0.04034  1.0000
  C   C12       1.0  0.15659  0.99686  0.04418  1.0000
  N   N4        1.0  0.16494  0.04545  0.05066  1.0000
  O   O1        1.0  0.18500  0.05325  0.08579  1.0000
  C   C13       1.0  0.02808  0.94567  0.98310  1.0000
  C   C14       1.0  0.00130  0.92122  0.02077  1.0000
  H   H1        1.0  0.91632  0.89796  0.97513  1.0000
  H   H2        1.0  0.87578  0.93372  0.99916  1.0000
  H   H3        1.0  0.89268  0.94107  0.94339  1.0000
  H   H4        1.0  0.98549  0.98035  0.04268  1.0000
  H   H5        1.0  0.90329  0.93437  0.06671  1.0000
  H   H6        1.0  0.94272  0.96362  0.09978  1.0000
  H   H7        1.0  0.92610  0.03339  0.06679  1.0000
  H   H8        1.0  0.87562  0.00685  0.05024  1.0000
  H   H9        1.0  0.90016  0.01881  0.97625  1.0000
  H   H10       1.0  0.94891  0.10340  0.00816  1.0000
  H   H11       1.0  0.92449  0.07104  0.91201  1.0000
  H   H12       1.0  0.90615  0.12249  0.93852  1.0000
  H   H13       1.0  0.00422  0.09418  0.92122  1.0000
  H   H14       1.0  0.98641  0.14582  0.94746  1.0000
  H   H15       1.0  0.09061  0.04046  0.99491  1.0000
  H   H16       1.0  0.10426  0.99015  0.96765  1.0000
  H   H17       1.0  0.10242  0.95076  0.04231  1.0000
  H   H18       1.0  0.08874  0.00124  0.06867  1.0000
  H   H19       1.0  0.17459  0.98698  0.01403  1.0000
  H   H20       1.0  0.17080  0.97866  0.07248  1.0000
  H   H21       1.0  0.01096  0.94488  0.95082  1.0000
  H   H22       1.0  0.05919  0.92716  0.97794  1.0000
  H   H23       1.0  0.02262  0.91622  0.05001  1.0000
  H   H24       1.0  0.98988  0.88851  0.00935  1.0000
