data_image0
_chemical_formula_structural       CNCOC4OC4NCOC3NC6H23
_chemical_formula_sum              "C20 N3 O3 H23"
_cell_length_a       30
_cell_length_b       30
_cell_length_c       30
_cell_angle_alpha    90
_cell_angle_beta     90
_cell_angle_gamma    90

_space_group_name_H-M_alt    "P 1"
_space_group_IT_number       1

loop_
  _space_group_symop_operation_xyz
  'x, y, z'

loop_
  _atom_site_type_symbol
  _atom_site_label
  _atom_site_symmetry_multiplicity
  _atom_site_fract_x
  _atom_site_fract_y
  _atom_site_fract_z
  _atom_site_occupancy
  C   C1        1.0  0.18083  0.00855  0.03444  1.0000
  N   N1        1.0  0.14416  0.00615  0.00349  1.0000
  C   C2        1.0  0.13777  0.03663  0.96928  1.0000
  O   O1        1.0  0.16272  0.06750  0.95997  1.0000
  C   C3        1.0  0.09251  0.02306  0.94656  1.0000
  C   C4        1.0  0.05040  0.05040  0.95861  1.0000
  C   C5        1.0  0.03201  0.01063  0.98652  1.0000
  C   C6        1.0  0.98691  0.99283  0.97132  1.0000
  O   O2        1.0  0.95392  0.02637  0.97819  1.0000
  C   C7        1.0  0.92355  0.02040  0.01404  1.0000
  C   C8        1.0  0.89577  0.06197  0.02044  1.0000
  C   C9        1.0  0.91579  0.10798  0.01524  1.0000
  C   C10       1.0  0.88224  0.09146  0.98183  1.0000
  N   N2        1.0  0.94685  0.01137  0.05487  1.0000
  C   C11       1.0  0.93167  0.97348  0.07584  1.0000
  O   O3        1.0  0.94316  0.95919  0.11190  1.0000
  C   C12       1.0  0.89863  0.95302  0.04618  1.0000
  C   C13       1.0  0.87513  0.91396  0.05107  1.0000
  C   C14       1.0  0.84664  0.90392  0.01626  1.0000
  N   N3        1.0  0.84125  0.92980  0.97927  1.0000
  C   C15       1.0  0.86519  0.96798  0.97633  1.0000
  C   C16       1.0  0.89412  0.98058  0.00923  1.0000
  C   C17       1.0  0.07283  0.98462  0.97342  1.0000
  C   C18       1.0  0.07247  0.93802  0.95547  1.0000
  C   C19       1.0  0.11565  0.92901  0.98233  1.0000
  C   C20       1.0  0.10796  0.97304  0.00842  1.0000
  H   H1        1.0  0.20666  0.03121  0.02232  1.0000
  H   H2        1.0  0.16822  0.02072  0.06639  1.0000
  H   H3        1.0  0.19491  0.97522  0.03873  1.0000
  H   H4        1.0  0.09587  0.01661  0.91078  1.0000
  H   H5        1.0  0.03029  0.05969  0.92958  1.0000
  H   H6        1.0  0.05678  0.08054  0.97821  1.0000
  H   H7        1.0  0.03152  0.01832  0.02229  1.0000
  H   H8        1.0  0.98753  0.98586  0.93547  1.0000
  H   H9        1.0  0.97887  0.96147  0.98813  1.0000
  H   H10       1.0  0.87162  0.05807  0.04718  1.0000
  H   H11       1.0  0.90537  0.13369  0.03841  1.0000
  H   H12       1.0  0.95016  0.11097  0.00442  1.0000
  H   H13       1.0  0.84916  0.10602  0.98246  1.0000
  H   H14       1.0  0.89420  0.08355  0.94865  1.0000
  H   H15       1.0  0.96689  0.03357  0.07021  1.0000
  H   H16       1.0  0.87880  0.89272  0.07997  1.0000
  H   H17       1.0  0.82650  0.87379  0.01677  1.0000
  H   H18       1.0  0.85999  0.98773  0.94648  1.0000
  H   H19       1.0  0.07565  0.93463  0.91932  1.0000
  H   H20       1.0  0.04447  0.91747  0.96672  1.0000
  H   H21       1.0  0.14580  0.92844  0.96171  1.0000
  H   H22       1.0  0.11491  0.89878  0.00272  1.0000
  H   H23       1.0  0.09572  0.96904  0.04254  1.0000
