data_image0
_chemical_formula_structural       CNC4NC10NCH27
_chemical_formula_sum              "C16 N3 H27"
_cell_length_a       30
_cell_length_b       30
_cell_length_c       30
_cell_angle_alpha    90
_cell_angle_beta     90
_cell_angle_gamma    90

_space_group_name_H-M_alt    "P 1"
_space_group_IT_number       1

loop_
  _space_group_symop_operation_xyz
  'x, y, z'

loop_
  _atom_site_type_symbol
  _atom_site_label
  _atom_site_symmetry_multiplicity
  _atom_site_fract_x
  _atom_site_fract_y
  _atom_site_fract_z
  _atom_site_occupancy
  C   C1        1.0  0.18585  0.96859  0.94061  1.0000
  N   N1        1.0  0.14868  0.96266  0.97063  1.0000
  C   C2        1.0  0.13043  0.92255  0.98229  1.0000
  C   C3        1.0  0.09568  0.93083  0.01112  1.0000
  C   C4        1.0  0.09278  0.97783  0.01742  1.0000
  C   C5        1.0  0.05999  0.00205  0.04605  1.0000
  N   N2        1.0  0.01853  0.00558  0.02086  1.0000
  C   C6        1.0  0.98299  0.02899  0.04481  1.0000
  C   C7        1.0  0.99420  0.07927  0.04848  1.0000
  C   C8        1.0  0.95273  0.10851  0.05019  1.0000
  C   C9        1.0  0.92471  0.10351  0.00788  1.0000
  C   C10       1.0  0.92653  0.05661  0.98762  1.0000
  C   C11       1.0  0.93612  0.02129  0.02349  1.0000
  C   C12       1.0  0.92729  0.97268  0.00864  1.0000
  C   C13       1.0  0.94972  0.95702  0.96542  1.0000
  C   C14       1.0  0.91387  0.93181  0.93975  1.0000
  C   C15       1.0  0.87683  0.92499  0.97328  1.0000
  N   N3        1.0  0.87931  0.96543  0.00018  1.0000
  C   C16       1.0  0.12630  0.99641  0.99167  1.0000
  H   H1        1.0  0.18685  0.94074  0.91714  1.0000
  H   H2        1.0  0.21637  0.96957  0.96047  1.0000
  H   H3        1.0  0.18151  0.99982  0.92235  1.0000
  H   H4        1.0  0.14326  0.89149  0.96921  1.0000
  H   H5        1.0  0.07429  0.90590  0.02605  1.0000
  H   H6        1.0  0.05473  0.98335  0.07700  1.0000
  H   H7        1.0  0.07336  0.03489  0.05476  1.0000
  H   H8        1.0  0.02497  0.02071  0.99113  1.0000
  H   H9        1.0  0.98091  0.01510  0.07864  1.0000
  H   H10       1.0  0.01452  0.08507  0.07831  1.0000
  H   H11       1.0  0.01447  0.09013  0.01999  1.0000
  H   H12       1.0  0.93269  0.09949  0.07942  1.0000
  H   H13       1.0  0.96212  0.14355  0.05452  1.0000
  H   H14       1.0  0.93583  0.12758  0.98270  1.0000
  H   H15       1.0  0.89009  0.11224  0.01572  1.0000
  H   H16       1.0  0.95267  0.05593  0.96208  1.0000
  H   H17       1.0  0.89501  0.05004  0.97037  1.0000
  H   H18       1.0  0.91206  0.02738  0.05058  1.0000
  H   H19       1.0  0.93729  0.95021  0.03579  1.0000
  H   H20       1.0  0.97745  0.93450  0.97314  1.0000
  H   H21       1.0  0.96290  0.98403  0.94481  1.0000
  H   H22       1.0  0.92624  0.90031  0.92615  1.0000
  H   H23       1.0  0.90210  0.95228  0.91183  1.0000
  H   H24       1.0  0.84430  0.92139  0.95726  1.0000
  H   H25       1.0  0.88306  0.89544  0.99386  1.0000
  H   H26       1.0  0.86268  0.96137  0.02949  1.0000
  H   H27       1.0  0.13573  0.03089  0.98681  1.0000
