data_image0
_chemical_formula_structural       CNC3N2CN3C3ONC4FC2OCF2H14
_chemical_formula_sum              "C15 N7 O2 F3 H14"
_cell_length_a       30
_cell_length_b       30
_cell_length_c       30
_cell_angle_alpha    90
_cell_angle_beta     90
_cell_angle_gamma    90

_space_group_name_H-M_alt    "P 1"
_space_group_IT_number       1

loop_
  _space_group_symop_operation_xyz
  'x, y, z'

loop_
  _atom_site_type_symbol
  _atom_site_label
  _atom_site_symmetry_multiplicity
  _atom_site_fract_x
  _atom_site_fract_y
  _atom_site_fract_z
  _atom_site_occupancy
  C   C1        1.0  0.04918  0.07217  0.02854  1.0000
  N   N1        1.0  0.06885  0.02921  0.01723  1.0000
  C   C2        1.0  0.10842  0.01474  0.03598  1.0000
  C   C3        1.0  0.13395  0.98294  0.01737  1.0000
  C   C4        1.0  0.17511  0.96729  0.03675  1.0000
  N   N2        1.0  0.20241  0.93560  0.02051  1.0000
  N   N3        1.0  0.23494  0.93448  0.05106  1.0000
  C   C5        1.0  0.22741  0.96417  0.08427  1.0000
  N   N4        1.0  0.19005  0.98546  0.07648  1.0000
  N   N5        1.0  0.12235  0.96355  0.97727  1.0000
  N   N6        1.0  0.08842  0.97526  0.95564  1.0000
  C   C6        1.0  0.05693  0.00958  0.97355  1.0000
  C   C7        1.0  0.01153  0.98617  0.97669  1.0000
  C   C8        1.0  0.97283  0.01711  0.96698  1.0000
  O   O1        1.0  0.97777  0.05402  0.95018  1.0000
  N   N7        1.0  0.93240  0.99770  0.97805  1.0000
  C   C9        1.0  0.88925  0.01602  0.97374  1.0000
  C   C10       1.0  0.88098  0.05917  0.95820  1.0000
  C   C11       1.0  0.83737  0.07559  0.95607  1.0000
  C   C12       1.0  0.80200  0.04904  0.96976  1.0000
  F   F1        1.0  0.76040  0.06513  0.96803  1.0000
  C   C13       1.0  0.80917  0.00605  0.98517  1.0000
  C   C14       1.0  0.85261  0.98945  0.98633  1.0000
  O   O2        1.0  0.85821  0.94697  0.00234  1.0000
  C   C15       1.0  0.86463  0.91648  0.96656  1.0000
  F   F2        1.0  0.84903  0.87632  0.98022  1.0000
  F   F3        1.0  0.90925  0.91165  0.96067  1.0000
  H   H1        1.0  0.01289  0.06971  0.03062  1.0000
  H   H2        1.0  0.05800  0.09732  0.00360  1.0000
  H   H3        1.0  0.06084  0.08397  0.06108  1.0000
  H   H4        1.0  0.11781  0.03096  0.06698  1.0000
  H   H5        1.0  0.26067  0.91298  0.04700  1.0000
  H   H6        1.0  0.24950  0.96872  0.11235  1.0000
  H   H7        1.0  0.05653  0.03621  0.94853  1.0000
  H   H8        1.0  0.00712  0.97108  0.00971  1.0000
  H   H9        1.0  0.00929  0.95927  0.95195  1.0000
  H   H10       1.0  0.93363  0.96628  0.99075  1.0000
  H   H11       1.0  0.90773  0.08122  0.94780  1.0000
  H   H12       1.0  0.83102  0.10918  0.94415  1.0000
  H   H13       1.0  0.78111  0.98602  0.99610  1.0000
  H   H14       1.0  0.84841  0.92572  0.93513  1.0000
