data_image0
_chemical_formula_structural       CNC5OC5ONCN2CSOH16
_chemical_formula_sum              "C13 N4 O3 S1 H16"
_cell_length_a       30
_cell_length_b       30
_cell_length_c       30
_cell_angle_alpha    90
_cell_angle_beta     90
_cell_angle_gamma    90

_space_group_name_H-M_alt    "P 1"
_space_group_IT_number       1

loop_
  _space_group_symop_operation_xyz
  'x, y, z'

loop_
  _atom_site_type_symbol
  _atom_site_label
  _atom_site_symmetry_multiplicity
  _atom_site_fract_x
  _atom_site_fract_y
  _atom_site_fract_z
  _atom_site_occupancy
  C   C1        1.0  0.89162  0.09154  0.00282  1.0000
  N   N1        1.0  0.88017  0.04555  0.99211  1.0000
  C   C2        1.0  0.83247  0.03704  0.99811  1.0000
  C   C3        1.0  0.82942  0.98647  0.99825  1.0000
  C   C4        1.0  0.87546  0.97032  0.01250  1.0000
  C   C5        1.0  0.90257  0.01277  0.02102  1.0000
  C   C6        1.0  0.95245  0.00603  0.01157  1.0000
  O   O1        1.0  0.96899  0.97181  0.04053  1.0000
  C   C7        1.0  0.01224  0.96263  0.03723  1.0000
  C   C8        1.0  0.03864  0.93175  0.05834  1.0000
  C   C9        1.0  0.08235  0.93791  0.04143  1.0000
  C   C10       1.0  0.08018  0.97241  0.01076  1.0000
  C   C11       1.0  0.11304  0.99450  0.98260  1.0000
  O   O2        1.0  0.10396  0.02777  0.96066  1.0000
  N   N2        1.0  0.15435  0.97427  0.98327  1.0000
  C   C12       1.0  0.18968  0.99051  0.95953  1.0000
  N   N3        1.0  0.19318  0.02571  0.93394  1.0000
  N   N4        1.0  0.23560  0.03001  0.91631  1.0000
  C   C13       1.0  0.26203  0.99766  0.92958  1.0000
  S   S1        1.0  0.23737  0.95964  0.96451  1.0000
  O   O3        1.0  0.03702  0.98733  0.00850  1.0000
  H   H1        1.0  0.88458  0.09988  0.03768  1.0000
  H   H2        1.0  0.87282  0.11453  0.98157  1.0000
  H   H3        1.0  0.92695  0.09797  0.99636  1.0000
  H   H4        1.0  0.81249  0.05156  0.97126  1.0000
  H   H5        1.0  0.82030  0.05020  0.03002  1.0000
  H   H6        1.0  0.80337  0.97476  0.02093  1.0000
  H   H7        1.0  0.82170  0.97386  0.96483  1.0000
  H   H8        1.0  0.89000  0.94993  0.98587  1.0000
  H   H9        1.0  0.87347  0.94962  0.04251  1.0000
  H   H10       1.0  0.89829  0.02173  0.05632  1.0000
  H   H11       1.0  0.97045  0.03717  0.01805  1.0000
  H   H12       1.0  0.95751  0.99624  0.97668  1.0000
  H   H13       1.0  0.02748  0.90798  0.08297  1.0000
  H   H14       1.0  0.11159  0.91932  0.05118  1.0000
  H   H15       1.0  0.15973  0.94630  0.00091  1.0000
  H   H16       1.0  0.29648  0.99531  0.91929  1.0000
