data_image0
_chemical_formula_structural       CNCOC7ClC9OC3ClC3H19
_chemical_formula_sum              "C24 N1 O2 Cl2 H19"
_cell_length_a       30
_cell_length_b       30
_cell_length_c       30
_cell_angle_alpha    90
_cell_angle_beta     90
_cell_angle_gamma    90

_space_group_name_H-M_alt    "P 1"
_space_group_IT_number       1

loop_
  _space_group_symop_operation_xyz
  'x, y, z'

loop_
  _atom_site_type_symbol
  _atom_site_label
  _atom_site_symmetry_multiplicity
  _atom_site_fract_x
  _atom_site_fract_y
  _atom_site_fract_z
  _atom_site_occupancy
  C   C1        1.0  0.00518  0.85501  0.01916  1.0000
  N   N1        1.0  0.99295  0.90144  0.01078  1.0000
  C   C2        1.0  0.02734  0.93060  0.99895  1.0000
  O   O1        1.0  0.06662  0.91879  0.00078  1.0000
  C   C3        1.0  0.01438  0.97641  0.98026  1.0000
  C   C4        1.0  0.05220  0.99609  0.95065  1.0000
  C   C5        1.0  0.08715  0.02541  0.97224  1.0000
  C   C6        1.0  0.08583  0.07179  0.96605  1.0000
  C   C7        1.0  0.11761  0.09954  0.98573  1.0000
  C   C8        1.0  0.15153  0.08125  0.01161  1.0000
  C   C9        1.0  0.15355  0.03526  0.01748  1.0000
  Cl  Cl1       1.0  0.19575  0.01256  0.04907  1.0000
  C   C10       1.0  0.12178  0.00743  0.99791  1.0000
  C   C11       1.0  0.99785  0.00765  0.01752  1.0000
  C   C12       1.0  0.97885  0.05201  0.00135  1.0000
  C   C13       1.0  0.95070  0.05537  0.96412  1.0000
  C   C14       1.0  0.93347  0.09661  0.95106  1.0000
  C   C15       1.0  0.94371  0.13492  0.97519  1.0000
  C   C16       1.0  0.97100  0.13205  0.01260  1.0000
  C   C17       1.0  0.98825  0.09089  0.02571  1.0000
  C   C18       1.0  0.96387  0.98624  0.04850  1.0000
  O   O2        1.0  0.95944  0.99699  0.08778  1.0000
  C   C19       1.0  0.93223  0.95401  0.02959  1.0000
  C   C20       1.0  0.88678  0.96428  0.03316  1.0000
  C   C21       1.0  0.85531  0.93341  0.01907  1.0000
  Cl  Cl2       1.0  0.79949  0.94574  0.02263  1.0000
  C   C22       1.0  0.86887  0.89232  0.00234  1.0000
  C   C23       1.0  0.91431  0.88204  0.99962  1.0000
  C   C24       1.0  0.94690  0.91299  0.01277  1.0000
  H   H1        1.0  0.98292  0.84012  0.04395  1.0000
  H   H2        1.0  0.00339  0.83653  0.98775  1.0000
  H   H3        1.0  0.03920  0.85247  0.03205  1.0000
  H   H4        1.0  0.98730  0.96919  0.95665  1.0000
  H   H5        1.0  0.03626  0.01562  0.92406  1.0000
  H   H6        1.0  0.06947  0.96924  0.93271  1.0000
  H   H7        1.0  0.05963  0.08690  0.94596  1.0000
  H   H8        1.0  0.11583  0.13539  0.98081  1.0000
  H   H9        1.0  0.17624  0.10285  0.02688  1.0000
  H   H10       1.0  0.12460  0.97163  0.00261  1.0000
  H   H11       1.0  0.02669  0.01433  0.03914  1.0000
  H   H12       1.0  0.94144  0.02621  0.94474  1.0000
  H   H13       1.0  0.91179  0.09884  0.92210  1.0000
  H   H14       1.0  0.93016  0.16696  0.96506  1.0000
  H   H15       1.0  0.97872  0.16179  0.03180  1.0000
  H   H16       1.0  0.00922  0.08930  0.05532  1.0000
  H   H17       1.0  0.87638  0.99597  0.04743  1.0000
  H   H18       1.0  0.84429  0.86795  0.99153  1.0000
  H   H19       1.0  0.92356  0.84965  0.98620  1.0000
