data_image0
_chemical_formula_structural       CNC2N2CNCOCH12
_chemical_formula_sum              "C6 N4 O1 H12"
_cell_length_a       30
_cell_length_b       30
_cell_length_c       30
_cell_angle_alpha    90
_cell_angle_beta     90
_cell_angle_gamma    90

_space_group_name_H-M_alt    "P 1"
_space_group_IT_number       1

loop_
  _space_group_symop_operation_xyz
  'x, y, z'

loop_
  _atom_site_type_symbol
  _atom_site_label
  _atom_site_symmetry_multiplicity
  _atom_site_fract_x
  _atom_site_fract_y
  _atom_site_fract_z
  _atom_site_occupancy
  C   C1        1.0  0.91110  0.03987  0.01070  1.0000
  N   N1        1.0  0.92920  0.01123  0.97551  1.0000
  C   C2        1.0  0.97152  0.02955  0.95806  1.0000
  C   C3        1.0  0.00734  0.00542  0.98401  1.0000
  N   N2        1.0  0.04914  0.01610  0.98028  1.0000
  N   N3        1.0  0.07851  0.99126  0.00471  1.0000
  C   C4        1.0  0.12330  0.99924  0.00528  1.0000
  N   N4        1.0  0.14311  0.03196  0.98577  1.0000
  C   C5        1.0  0.98756  0.96936  0.01314  1.0000
  O   O1        1.0  0.01131  0.92859  0.01161  1.0000
  C   C6        1.0  0.94072  0.96663  0.99296  1.0000
  H   H1        1.0  0.88022  0.02562  0.02398  1.0000
  H   H2        1.0  0.93432  0.04484  0.03845  1.0000
  H   H3        1.0  0.90247  0.07263  0.99704  1.0000
  H   H4        1.0  0.97509  0.02081  0.92279  1.0000
  H   H5        1.0  0.97459  0.06572  0.96165  1.0000
  H   H6        1.0  0.06800  0.96196  0.01883  1.0000
  H   H7        1.0  0.14229  0.97450  0.02470  1.0000
  H   H8        1.0  0.11778  0.04939  0.97041  1.0000
  H   H9        1.0  0.98665  0.98149  0.04756  1.0000
  H   H10       1.0  0.00910  0.91698  0.98130  1.0000
  H   H11       1.0  0.91635  0.95405  0.01711  1.0000
  H   H12       1.0  0.94033  0.94280  0.96518  1.0000
