data_image0
_chemical_formula_structural       CN2C2ONC18OH27
_chemical_formula_sum              "C21 N3 O2 H27"
_cell_length_a       30
_cell_length_b       30
_cell_length_c       30
_cell_angle_alpha    90
_cell_angle_beta     90
_cell_angle_gamma    90

_space_group_name_H-M_alt    "P 1"
_space_group_IT_number       1

loop_
  _space_group_symop_operation_xyz
  'x, y, z'

loop_
  _atom_site_type_symbol
  _atom_site_label
  _atom_site_symmetry_multiplicity
  _atom_site_fract_x
  _atom_site_fract_y
  _atom_site_fract_z
  _atom_site_occupancy
  C   C1        1.0  0.18191  0.95798  0.98883  1.0000
  N   N1        1.0  0.14881  0.99262  0.98195  1.0000
  N   N2        1.0  0.10832  0.97847  0.96590  1.0000
  C   C2        1.0  0.07794  0.00809  0.95685  1.0000
  C   C3        1.0  0.03369  0.98992  0.93974  1.0000
  O   O1        1.0  0.01608  0.00569  0.90667  1.0000
  N   N3        1.0  0.01730  0.95569  0.96545  1.0000
  C   C4        1.0  0.97578  0.93338  0.95560  1.0000
  C   C5        1.0  0.93424  0.96140  0.96757  1.0000
  C   C6        1.0  0.89271  0.93995  0.94608  1.0000
  C   C7        1.0  0.87048  0.91179  0.98222  1.0000
  C   C8        1.0  0.89768  0.91886  0.02457  1.0000
  C   C9        1.0  0.92168  0.96398  0.01810  1.0000
  C   C10       1.0  0.96205  0.96813  0.04987  1.0000
  C   C11       1.0  0.94852  0.98538  0.09575  1.0000
  C   C12       1.0  0.93005  0.03279  0.09292  1.0000
  C   C13       1.0  0.90978  0.04364  0.04745  1.0000
  C   C14       1.0  0.88783  0.00275  0.02661  1.0000
  C   C15       1.0  0.08386  0.05629  0.96351  1.0000
  C   C16       1.0  0.05015  0.08768  0.95584  1.0000
  C   C17       1.0  0.05832  0.13294  0.96330  1.0000
  C   C18       1.0  0.09992  0.14699  0.97846  1.0000
  C   C19       1.0  0.13343  0.11575  0.98637  1.0000
  C   C20       1.0  0.12525  0.07035  0.97898  1.0000
  C   C21       1.0  0.16040  0.03716  0.98807  1.0000
  O   O2        1.0  0.19724  0.04986  0.00064  1.0000
  H   H1        1.0  0.20902  0.96963  0.01023  1.0000
  H   H2        1.0  0.16607  0.92905  0.00437  1.0000
  H   H3        1.0  0.19559  0.94852  0.95637  1.0000
  H   H4        1.0  0.03830  0.94257  0.98852  1.0000
  H   H5        1.0  0.97608  0.90142  0.97319  1.0000
  H   H6        1.0  0.97597  0.92618  0.91976  1.0000
  H   H7        1.0  0.93875  0.99508  0.95404  1.0000
  H   H8        1.0  0.86952  0.96594  0.93497  1.0000
  H   H9        1.0  0.90055  0.91993  0.91657  1.0000
  H   H10       1.0  0.83598  0.92272  0.98710  1.0000
  H   H11       1.0  0.86952  0.87646  0.97309  1.0000
  H   H12       1.0  0.92181  0.89159  0.02794  1.0000
  H   H13       1.0  0.87659  0.91789  0.05436  1.0000
  H   H14       1.0  0.97908  0.93603  0.05358  1.0000
  H   H15       1.0  0.98651  0.99157  0.03616  1.0000
  H   H16       1.0  0.97717  0.98480  0.11840  1.0000
  H   H17       1.0  0.92336  0.96321  0.11031  1.0000
  H   H18       1.0  0.95660  0.05693  0.09995  1.0000
  H   H19       1.0  0.90499  0.03726  0.11915  1.0000
  H   H20       1.0  0.93577  0.05622  0.02499  1.0000
  H   H21       1.0  0.88537  0.07057  0.05115  1.0000
  H   H22       1.0  0.86121  0.99164  0.04913  1.0000
  H   H23       1.0  0.87120  0.01300  0.99574  1.0000
  H   H24       1.0  0.01734  0.07793  0.94394  1.0000
  H   H25       1.0  0.03212  0.15728  0.95718  1.0000
  H   H26       1.0  0.10625  0.18222  0.98423  1.0000
  H   H27       1.0  0.16582  0.12680  0.99841  1.0000
