data_image0
_chemical_formula_structural       CN2C4ONC3N2C6NC12H24
_chemical_formula_sum              "C26 N6 O1 H24"
_cell_length_a       30
_cell_length_b       30
_cell_length_c       30
_cell_angle_alpha    90
_cell_angle_beta     90
_cell_angle_gamma    90

_space_group_name_H-M_alt    "P 1"
_space_group_IT_number       1

loop_
  _space_group_symop_operation_xyz
  'x, y, z'

loop_
  _atom_site_type_symbol
  _atom_site_label
  _atom_site_symmetry_multiplicity
  _atom_site_fract_x
  _atom_site_fract_y
  _atom_site_fract_z
  _atom_site_occupancy
  C   C1        1.0  0.97444  0.92721  0.90243  1.0000
  N   N1        1.0  0.96392  0.95091  0.94301  1.0000
  N   N2        1.0  0.96053  0.99546  0.94191  1.0000
  C   C2        1.0  0.95012  0.00706  0.98395  1.0000
  C   C3        1.0  0.94490  0.05622  0.99443  1.0000
  C   C4        1.0  0.98746  0.07514  0.01544  1.0000
  C   C5        1.0  0.02320  0.08128  0.98012  1.0000
  O   O1        1.0  0.01657  0.10528  0.94756  1.0000
  N   N3        1.0  0.06255  0.05925  0.98998  1.0000
  C   C6        1.0  0.09898  0.05911  0.96147  1.0000
  C   C7        1.0  0.10510  0.07634  0.91932  1.0000
  C   C8        1.0  0.14873  0.06425  0.90714  1.0000
  N   N4        1.0  0.16971  0.04152  0.93910  1.0000
  N   N5        1.0  0.13903  0.03904  0.97211  1.0000
  C   C9        1.0  0.15219  0.02012  0.01474  1.0000
  C   C10       1.0  0.12467  0.97968  0.02583  1.0000
  C   C11       1.0  0.13542  0.93814  0.00788  1.0000
  C   C12       1.0  0.10887  0.90161  0.01854  1.0000
  C   C13       1.0  0.07243  0.90748  0.04654  1.0000
  C   C14       1.0  0.06372  0.94993  0.06265  1.0000
  N   N6        1.0  0.08864  0.98621  0.05279  1.0000
  C   C15       1.0  0.90207  0.06097  0.02153  1.0000
  C   C16       1.0  0.90148  0.07465  0.06639  1.0000
  C   C17       1.0  0.86127  0.07854  0.08965  1.0000
  C   C18       1.0  0.82108  0.06926  0.06854  1.0000
  C   C19       1.0  0.82083  0.05610  0.02398  1.0000
  C   C20       1.0  0.86087  0.05211  0.00067  1.0000
  C   C21       1.0  0.94710  0.96862  0.01205  1.0000
  C   C22       1.0  0.93764  0.96003  0.05728  1.0000
  C   C23       1.0  0.93682  0.91593  0.07256  1.0000
  C   C24       1.0  0.94551  0.88058  0.04370  1.0000
  C   C25       1.0  0.95539  0.88818  0.99884  1.0000
  C   C26       1.0  0.95597  0.93252  0.98405  1.0000
  H   H1        1.0  0.00132  0.90354  0.90920  1.0000
  H   H2        1.0  0.98528  0.95095  0.87699  1.0000
  H   H3        1.0  0.94437  0.90978  0.89127  1.0000
  H   H4        1.0  0.93870  0.07428  0.96310  1.0000
  H   H5        1.0  0.98158  0.10836  0.02946  1.0000
  H   H6        1.0  0.99939  0.05407  0.04275  1.0000
  H   H7        1.0  0.06406  0.03988  0.01798  1.0000
  H   H8        1.0  0.08112  0.09451  0.89949  1.0000
  H   H9        1.0  0.16606  0.07118  0.87628  1.0000
  H   H10       1.0  0.14766  0.04632  0.03992  1.0000
  H   H11       1.0  0.18780  0.01183  0.01365  1.0000
  H   H12       1.0  0.16385  0.93422  0.98576  1.0000
  H   H13       1.0  0.11648  0.86887  0.00505  1.0000
  H   H14       1.0  0.05114  0.87966  0.05554  1.0000
  H   H15       1.0  0.03557  0.95599  0.08468  1.0000
  H   H16       1.0  0.93214  0.08237  0.08422  1.0000
  H   H17       1.0  0.86141  0.08896  0.12439  1.0000
  H   H18       1.0  0.78993  0.07239  0.08670  1.0000
  H   H19       1.0  0.78956  0.04899  0.00728  1.0000
  H   H20       1.0  0.85998  0.04177  0.96574  1.0000
  H   H21       1.0  0.93015  0.98698  0.08030  1.0000
  H   H22       1.0  0.92888  0.90931  0.10727  1.0000
  H   H23       1.0  0.94432  0.84652  0.05610  1.0000
  H   H24       1.0  0.96203  0.86055  0.97635  1.0000
