data_image0
_chemical_formula_structural       CN2C4NCONC4FC2O2C3NC4OH22
_chemical_formula_sum              "C19 N5 O4 F1 H22"
_cell_length_a       30
_cell_length_b       30
_cell_length_c       30
_cell_angle_alpha    90
_cell_angle_beta     90
_cell_angle_gamma    90

_space_group_name_H-M_alt    "P 1"
_space_group_IT_number       1

loop_
  _space_group_symop_operation_xyz
  'x, y, z'

loop_
  _atom_site_type_symbol
  _atom_site_label
  _atom_site_symmetry_multiplicity
  _atom_site_fract_x
  _atom_site_fract_y
  _atom_site_fract_z
  _atom_site_occupancy
  C   C1        1.0  0.79307  0.06896  0.90944  1.0000
  N   N1        1.0  0.82474  0.05132  0.94075  1.0000
  N   N2        1.0  0.86901  0.06202  0.93937  1.0000
  C   C2        1.0  0.88743  0.03556  0.96863  1.0000
  C   C3        1.0  0.93741  0.03771  0.97599  1.0000
  C   C4        1.0  0.96139  0.99403  0.96553  1.0000
  C   C5        1.0  0.01139  0.99938  0.97324  1.0000
  N   N3        1.0  0.02211  0.01632  0.01777  1.0000
  C   C6        1.0  0.06399  0.01173  0.03777  1.0000
  O   O1        1.0  0.06900  0.01654  0.07810  1.0000
  N   N4        1.0  0.09783  0.00191  0.00825  1.0000
  C   C7        1.0  0.14247  0.99121  0.01830  1.0000
  C   C8        1.0  0.15810  0.98254  0.06129  1.0000
  C   C9        1.0  0.20283  0.97156  0.06837  1.0000
  C   C10       1.0  0.23223  0.96903  0.03256  1.0000
  F   F1        1.0  0.27451  0.95738  0.04109  1.0000
  C   C11       1.0  0.21733  0.97753  0.98943  1.0000
  C   C12       1.0  0.24655  0.97504  0.94991  1.0000
  O   O2        1.0  0.23337  0.97336  0.91151  1.0000
  O   O3        1.0  0.29019  0.97624  0.95942  1.0000
  C   C13       1.0  0.17230  0.98837  0.98245  1.0000
  C   C14       1.0  0.98475  0.02907  0.04633  1.0000
  C   C15       1.0  0.95021  0.05704  0.02153  1.0000
  N   N5        1.0  0.85863  0.00806  0.98975  1.0000
  C   C16       1.0  0.86691  0.97220  0.01990  1.0000
  C   C17       1.0  0.87854  0.97939  0.06826  1.0000
  C   C18       1.0  0.83425  0.96003  0.05632  1.0000
  C   C19       1.0  0.81758  0.01601  0.97011  1.0000
  O   O4        1.0  0.78266  0.99584  0.97585  1.0000
  H   H1        1.0  0.75916  0.06084  0.91998  1.0000
  H   H2        1.0  0.79704  0.10512  0.90741  1.0000
  H   H3        1.0  0.79931  0.05396  0.87683  1.0000
  H   H4        1.0  0.94951  0.06188  0.95114  1.0000
  H   H5        1.0  0.94921  0.96684  0.98652  1.0000
  H   H6        1.0  0.95508  0.98404  0.93094  1.0000
  H   H7        1.0  0.02529  0.02297  0.94905  1.0000
  H   H8        1.0  0.02805  0.96724  0.96836  1.0000
  H   H9        1.0  0.09123  0.00862  0.97602  1.0000
  H   H10       1.0  0.13621  0.98374  0.09013  1.0000
  H   H11       1.0  0.21484  0.96473  0.10184  1.0000
  H   H12       1.0  0.30520  0.97467  0.93048  1.0000
  H   H13       1.0  0.16084  0.99467  0.94861  1.0000
  H   H14       1.0  0.99662  0.04785  0.07532  1.0000
  H   H15       1.0  0.97001  0.99819  0.05902  1.0000
  H   H16       1.0  0.96456  0.09028  0.01594  1.0000
  H   H17       1.0  0.92106  0.06265  0.04274  1.0000
  H   H18       1.0  0.88141  0.94353  0.00311  1.0000
  H   H19       1.0  0.87829  0.01278  0.08198  1.0000
  H   H20       1.0  0.90282  0.95732  0.08340  1.0000
  H   H21       1.0  0.82854  0.92492  0.06272  1.0000
  H   H22       1.0  0.80494  0.98061  0.06120  1.0000
