data_image0
_chemical_formula_structural       CNCNC8SC2N2C3SC4OH22
_chemical_formula_sum              "C19 N4 S2 O1 H22"
_cell_length_a       30
_cell_length_b       30
_cell_length_c       30
_cell_angle_alpha    90
_cell_angle_beta     90
_cell_angle_gamma    90

_space_group_name_H-M_alt    "P 1"
_space_group_IT_number       1

loop_
  _space_group_symop_operation_xyz
  'x, y, z'

loop_
  _atom_site_type_symbol
  _atom_site_label
  _atom_site_symmetry_multiplicity
  _atom_site_fract_x
  _atom_site_fract_y
  _atom_site_fract_z
  _atom_site_occupancy
  C   C1        1.0  0.09975  0.00668  0.12329  1.0000
  N   N1        1.0  0.06291  0.97611  0.12911  1.0000
  C   C2        1.0  0.03808  0.96609  0.09552  1.0000
  N   N2        1.0  0.03794  0.98169  0.05264  1.0000
  C   C3        1.0  0.03680  0.02880  0.04173  1.0000
  C   C4        1.0  0.06620  0.03810  0.00175  1.0000
  C   C5        1.0  0.05331  0.02291  0.95950  1.0000
  C   C6        1.0  0.07996  0.03086  0.92215  1.0000
  C   C7        1.0  0.12019  0.05406  0.92634  1.0000
  C   C8        1.0  0.14856  0.06321  0.88628  1.0000
  C   C9        1.0  0.13305  0.06972  0.96843  1.0000
  C   C10       1.0  0.10635  0.06167  0.00582  1.0000
  S   S1        1.0  0.00143  0.92139  0.10701  1.0000
  C   C11       1.0  0.94803  0.94734  0.09507  1.0000
  C   C12       1.0  0.93648  0.94374  0.04687  1.0000
  N   N3        1.0  0.95028  0.97540  0.01862  1.0000
  N   N4        1.0  0.94135  0.96560  0.97212  1.0000
  C   C13       1.0  0.90499  0.98730  0.95587  1.0000
  C   C14       1.0  0.91986  0.01519  0.91680  1.0000
  C   C15       1.0  0.94472  0.99288  0.87940  1.0000
  S   S2        1.0  0.89270  0.01168  0.86541  1.0000
  C   C16       1.0  0.86167  0.99023  0.96843  1.0000
  C   C17       1.0  0.83451  0.97012  0.99767  1.0000
  C   C18       1.0  0.83572  0.93690  0.02743  1.0000
  C   C19       1.0  0.86756  0.90921  0.04173  1.0000
  O   O1        1.0  0.91183  0.90808  0.03165  1.0000
  H   H1        1.0  0.11574  0.00411  0.09060  1.0000
  H   H2        1.0  0.08943  0.04105  0.12978  1.0000
  H   H3        1.0  0.12556  0.99869  0.14786  1.0000
  H   H4        1.0  0.01037  0.96855  0.03515  1.0000
  H   H5        1.0  0.00293  0.04030  0.03454  1.0000
  H   H6        1.0  0.04756  0.04956  0.06969  1.0000
  H   H7        1.0  0.02209  0.00437  0.95616  1.0000
  H   H8        1.0  0.06861  0.01831  0.89010  1.0000
  H   H9        1.0  0.14395  0.09765  0.87518  1.0000
  H   H10       1.0  0.18387  0.05791  0.89419  1.0000
  H   H11       1.0  0.14015  0.04087  0.85866  1.0000
  H   H12       1.0  0.16402  0.08806  0.97249  1.0000
  H   H13       1.0  0.11702  0.07362  0.03829  1.0000
  H   H14       1.0  0.92302  0.93007  0.11526  1.0000
  H   H15       1.0  0.94817  0.98206  0.10638  1.0000
  H   H16       1.0  0.93093  0.04820  0.92663  1.0000
  H   H17       1.0  0.97315  0.01058  0.86623  1.0000
  H   H18       1.0  0.94969  0.95717  0.88233  1.0000
  H   H19       1.0  0.84367  0.01531  0.94913  1.0000
  H   H20       1.0  0.80117  0.98469  0.99584  1.0000
  H   H21       1.0  0.80374  0.93074  0.04351  1.0000
  H   H22       1.0  0.86095  0.88320  0.06576  1.0000
