data_image0
_chemical_formula_structural       CNC2NC6SNC2OC6H23
_chemical_formula_sum              "C17 N3 S1 O1 H23"
_cell_length_a       30
_cell_length_b       30
_cell_length_c       30
_cell_angle_alpha    90
_cell_angle_beta     90
_cell_angle_gamma    90

_space_group_name_H-M_alt    "P 1"
_space_group_IT_number       1

loop_
  _space_group_symop_operation_xyz
  'x, y, z'

loop_
  _atom_site_type_symbol
  _atom_site_label
  _atom_site_symmetry_multiplicity
  _atom_site_fract_x
  _atom_site_fract_y
  _atom_site_fract_z
  _atom_site_occupancy
  C   C1        1.0  0.02226  0.10070  0.98031  1.0000
  N   N1        1.0  0.99662  0.05966  0.98169  1.0000
  C   C2        1.0  0.01533  0.02132  0.98994  1.0000
  C   C3        1.0  0.06396  0.01756  0.99538  1.0000
  N   N2        1.0  0.08281  0.00654  0.03343  1.0000
  C   C4        1.0  0.12853  0.00396  0.02766  1.0000
  C   C5        1.0  0.16000  0.99446  0.06124  1.0000
  C   C6        1.0  0.20538  0.99267  0.05073  1.0000
  C   C7        1.0  0.21970  0.00007  0.00724  1.0000
  C   C8        1.0  0.18917  0.00951  0.97329  1.0000
  C   C9        1.0  0.14369  0.01138  0.98428  1.0000
  S   S1        1.0  0.09867  0.02215  0.95031  1.0000
  N   N3        1.0  0.98714  0.98409  0.99359  1.0000
  C   C10       1.0  0.00414  0.93845  0.99636  1.0000
  C   C11       1.0  0.99719  0.91516  0.95137  1.0000
  O   O1        1.0  0.95354  0.92060  0.93256  1.0000
  C   C12       1.0  0.92265  0.94168  0.96232  1.0000
  C   C13       1.0  0.93959  0.98714  0.97992  1.0000
  C   C14       1.0  0.91187  0.00450  0.01977  1.0000
  C   C15       1.0  0.86344  0.01779  0.00849  1.0000
  C   C16       1.0  0.83065  0.97910  0.01425  1.0000
  C   C17       1.0  0.84859  0.05633  0.03868  1.0000
  H   H1        1.0  0.03705  0.10565  0.94736  1.0000
  H   H2        1.0  0.04806  0.10246  0.00605  1.0000
  H   H3        1.0  0.99966  0.12874  0.98634  1.0000
  H   H4        1.0  0.14868  0.98880  0.09517  1.0000
  H   H5        1.0  0.22955  0.98544  0.07677  1.0000
  H   H6        1.0  0.25511  0.99862  0.99949  1.0000
  H   H7        1.0  0.20040  0.01541  0.93941  1.0000
  H   H8        1.0  0.03922  0.93638  0.00599  1.0000
  H   H9        1.0  0.98560  0.92082  0.02252  1.0000
  H   H10       1.0  0.00359  0.87941  0.95477  1.0000
  H   H11       1.0  0.02086  0.92815  0.92679  1.0000
  H   H12       1.0  0.89191  0.94657  0.94331  1.0000
  H   H13       1.0  0.91508  0.91836  0.98952  1.0000
  H   H14       1.0  0.93720  0.01053  0.95190  1.0000
  H   H15       1.0  0.91226  0.97984  0.04681  1.0000
  H   H16       1.0  0.92901  0.03382  0.03337  1.0000
  H   H17       1.0  0.86178  0.02968  0.97392  1.0000
  H   H18       1.0  0.83749  0.95173  0.99122  1.0000
  H   H19       1.0  0.83179  0.96569  0.04822  1.0000
  H   H20       1.0  0.79646  0.99022  0.00776  1.0000
  H   H21       1.0  0.81442  0.06656  0.03080  1.0000
  H   H22       1.0  0.84980  0.04679  0.07394  1.0000
  H   H23       1.0  0.87012  0.08550  0.03410  1.0000
