data_image0
_chemical_formula_structural       CNCOC7OC3OC7OH19
_chemical_formula_sum              "C19 N1 O4 H19"
_cell_length_a       30
_cell_length_b       30
_cell_length_c       30
_cell_angle_alpha    90
_cell_angle_beta     90
_cell_angle_gamma    90

_space_group_name_H-M_alt    "P 1"
_space_group_IT_number       1

loop_
  _space_group_symop_operation_xyz
  'x, y, z'

loop_
  _atom_site_type_symbol
  _atom_site_label
  _atom_site_symmetry_multiplicity
  _atom_site_fract_x
  _atom_site_fract_y
  _atom_site_fract_z
  _atom_site_occupancy
  C   C1        1.0  0.19855  0.95995  0.94754  1.0000
  N   N1        1.0  0.16130  0.97907  0.97108  1.0000
  C   C2        1.0  0.11836  0.96470  0.96312  1.0000
  O   O1        1.0  0.10918  0.93404  0.93775  1.0000
  C   C3        1.0  0.08380  0.99112  0.98889  1.0000
  C   C4        1.0  0.03667  0.97266  0.98198  1.0000
  C   C5        1.0  0.00007  0.99883  0.00674  1.0000
  C   C6        1.0  0.95386  0.98085  0.99436  1.0000
  C   C7        1.0  0.92540  0.00427  0.96545  1.0000
  C   C8        1.0  0.88341  0.98742  0.95385  1.0000
  C   C9        1.0  0.86905  0.94663  0.97075  1.0000
  O   O2        1.0  0.82907  0.92652  0.96214  1.0000
  C   C10       1.0  0.79942  0.94939  0.93309  1.0000
  C   C11       1.0  0.89712  0.92287  0.99917  1.0000
  C   C12       1.0  0.93905  0.93959  0.01077  1.0000
  O   O3        1.0  0.00347  0.04597  0.99420  1.0000
  C   C13       1.0  0.00680  0.06963  0.03308  1.0000
  C   C14       1.0  0.00826  0.11556  0.03520  1.0000
  C   C15       1.0  0.01241  0.13545  0.07722  1.0000
  C   C16       1.0  0.01520  0.10925  0.11606  1.0000
  C   C17       1.0  0.01385  0.06284  0.11334  1.0000
  C   C18       1.0  0.00952  0.04445  0.07136  1.0000
  C   C19       1.0  0.00777  0.99867  0.05720  1.0000
  O   O4        1.0  0.01282  0.96713  0.08230  1.0000
  H   H1        1.0  0.19458  0.92384  0.94464  1.0000
  H   H2        1.0  0.20008  0.97471  0.91426  1.0000
  H   H3        1.0  0.22904  0.96768  0.96587  1.0000
  H   H4        1.0  0.16599  0.00797  0.98779  1.0000
  H   H5        1.0  0.08572  0.02579  0.97756  1.0000
  H   H6        1.0  0.09283  0.98997  0.02426  1.0000
  H   H7        1.0  0.02949  0.97328  0.94607  1.0000
  H   H8        1.0  0.03606  0.93747  0.99202  1.0000
  H   H9        1.0  0.93556  0.03609  0.95129  1.0000
  H   H10       1.0  0.86291  0.00704  0.93144  1.0000
  H   H11       1.0  0.76932  0.92907  0.92963  1.0000
  H   H12       1.0  0.78951  0.98161  0.94709  1.0000
  H   H13       1.0  0.81399  0.95336  0.89986  1.0000
  H   H14       1.0  0.88635  0.89089  0.01241  1.0000
  H   H15       1.0  0.95997  0.91974  0.03284  1.0000
  H   H16       1.0  0.00621  0.13566  0.00521  1.0000
  H   H17       1.0  0.01351  0.17161  0.07993  1.0000
  H   H18       1.0  0.01842  0.12537  0.14839  1.0000
  H   H19       1.0  0.01604  0.04197  0.14280  1.0000
