data_image0
_chemical_formula_structural       CNC8OC3NC7N2OH22
_chemical_formula_sum              "C19 N4 O2 H22"
_cell_length_a       30
_cell_length_b       30
_cell_length_c       30
_cell_angle_alpha    90
_cell_angle_beta     90
_cell_angle_gamma    90

_space_group_name_H-M_alt    "P 1"
_space_group_IT_number       1

loop_
  _space_group_symop_operation_xyz
  'x, y, z'

loop_
  _atom_site_type_symbol
  _atom_site_label
  _atom_site_symmetry_multiplicity
  _atom_site_fract_x
  _atom_site_fract_y
  _atom_site_fract_z
  _atom_site_occupancy
  C   C1        1.0  0.99073  0.12961  0.92701  1.0000
  N   N1        1.0  0.00680  0.09461  0.95651  1.0000
  C   C2        1.0  0.99518  0.04950  0.94024  1.0000
  C   C3        1.0  0.94799  0.03614  0.95556  1.0000
  C   C4        1.0  0.94188  0.03558  0.00636  1.0000
  C   C5        1.0  0.89532  0.02112  0.01886  1.0000
  C   C6        1.0  0.86148  0.05265  0.02476  1.0000
  C   C7        1.0  0.81841  0.03898  0.03567  1.0000
  C   C8        1.0  0.80864  0.99370  0.04063  1.0000
  C   C9        1.0  0.84199  0.96185  0.03467  1.0000
  O   O1        1.0  0.83692  0.91668  0.03839  1.0000
  C   C10       1.0  0.79384  0.90088  0.05021  1.0000
  C   C11       1.0  0.88512  0.97576  0.02376  1.0000
  C   C12       1.0  0.02973  0.01595  0.95446  1.0000
  N   N2        1.0  0.06969  0.02264  0.97112  1.0000
  C   C13       1.0  0.08590  0.97979  0.97624  1.0000
  C   C14       1.0  0.13024  0.97020  0.99458  1.0000
  C   C15       1.0  0.14452  0.92647  0.00104  1.0000
  C   C16       1.0  0.18689  0.91891  0.01860  1.0000
  C   C17       1.0  0.21400  0.95499  0.02967  1.0000
  C   C18       1.0  0.26007  0.94837  0.04750  1.0000
  C   C19       1.0  0.19729  0.99743  0.02165  1.0000
  N   N3        1.0  0.15641  0.00578  0.00465  1.0000
  N   N4        1.0  0.05719  0.94810  0.96252  1.0000
  O   O2        1.0  0.02027  0.97202  0.94779  1.0000
  H   H1        1.0  0.95437  0.12929  0.92430  1.0000
  H   H2        1.0  0.00524  0.12674  0.89365  1.0000
  H   H3        1.0  0.00031  0.16211  0.94053  1.0000
  H   H4        1.0  0.04086  0.09650  0.95862  1.0000
  H   H5        1.0  0.99595  0.04924  0.90362  1.0000
  H   H6        1.0  0.92354  0.05903  0.94079  1.0000
  H   H7        1.0  0.93977  0.00314  0.94200  1.0000
  H   H8        1.0  0.96590  0.01298  0.02213  1.0000
  H   H9        1.0  0.94830  0.06865  0.02055  1.0000
  H   H10       1.0  0.86854  0.08801  0.02094  1.0000
  H   H11       1.0  0.79231  0.06368  0.04032  1.0000
  H   H12       1.0  0.77473  0.98447  0.04911  1.0000
  H   H13       1.0  0.76920  0.90954  0.02472  1.0000
  H   H14       1.0  0.79546  0.86450  0.05216  1.0000
  H   H15       1.0  0.78380  0.91330  0.08304  1.0000
  H   H16       1.0  0.91098  0.95076  0.01909  1.0000
  H   H17       1.0  0.12325  0.89841  0.99263  1.0000
  H   H18       1.0  0.19840  0.88490  0.02355  1.0000
  H   H19       1.0  0.28400  0.94665  0.02003  1.0000
  H   H20       1.0  0.26221  0.91753  0.06692  1.0000
  H   H21       1.0  0.26952  0.97579  0.06967  1.0000
  H   H22       1.0  0.21689  0.02704  0.02890  1.0000
