data_image0
_chemical_formula_structural       CNC13OH17
_chemical_formula_sum              "C14 N1 O1 H17"
_cell_length_a       30
_cell_length_b       30
_cell_length_c       30
_cell_angle_alpha    90
_cell_angle_beta     90
_cell_angle_gamma    90

_space_group_name_H-M_alt    "P 1"
_space_group_IT_number       1

loop_
  _space_group_symop_operation_xyz
  'x, y, z'

loop_
  _atom_site_type_symbol
  _atom_site_label
  _atom_site_symmetry_multiplicity
  _atom_site_fract_x
  _atom_site_fract_y
  _atom_site_fract_z
  _atom_site_occupancy
  C   C1        1.0  0.01647  0.08953  0.95551  1.0000
  N   N1        1.0  0.99204  0.06270  0.98753  1.0000
  C   C2        1.0  0.98319  0.01649  0.97292  1.0000
  C   C3        1.0  0.94933  0.99495  0.00474  1.0000
  C   C4        1.0  0.95282  0.99975  0.05119  1.0000
  C   C5        1.0  0.92213  0.97940  0.07961  1.0000
  C   C6        1.0  0.88754  0.95389  0.06204  1.0000
  C   C7        1.0  0.88363  0.94869  0.01605  1.0000
  C   C8        1.0  0.91431  0.96902  0.98756  1.0000
  C   C9        1.0  0.02332  0.98384  0.96532  1.0000
  C   C10       1.0  0.04496  0.98913  0.91927  1.0000
  C   C11       1.0  0.05750  0.98450  0.00185  1.0000
  C   C12       1.0  0.06252  0.95974  0.04034  1.0000
  C   C13       1.0  0.10180  0.97530  0.06130  1.0000
  C   C14       1.0  0.11851  0.00821  0.03417  1.0000
  O   O1        1.0  0.09209  0.01380  0.99789  1.0000
  H   H1        1.0  0.00197  0.08764  0.92208  1.0000
  H   H2        1.0  0.01537  0.12449  0.96596  1.0000
  H   H3        1.0  0.05165  0.08035  0.95426  1.0000
  H   H4        1.0  0.96205  0.07755  0.99353  1.0000
  H   H5        1.0  0.96551  0.01935  0.94092  1.0000
  H   H6        1.0  0.97974  0.01954  0.06540  1.0000
  H   H7        1.0  0.92529  0.98352  0.11546  1.0000
  H   H8        1.0  0.86364  0.93807  0.08419  1.0000
  H   H9        1.0  0.85665  0.92876  0.00235  1.0000
  H   H10       1.0  0.91070  0.96444  0.95178  1.0000
  H   H11       1.0  0.00964  0.94978  0.96510  1.0000
  H   H12       1.0  0.06270  0.02066  0.91527  1.0000
  H   H13       1.0  0.01985  0.98687  0.89287  1.0000
  H   H14       1.0  0.06932  0.96249  0.91353  1.0000
  H   H15       1.0  0.04022  0.93387  0.05185  1.0000
  H   H16       1.0  0.11617  0.96397  0.09232  1.0000
  H   H17       1.0  0.14737  0.02970  0.03583  1.0000
