data_image0
_chemical_formula_structural       CNCOC7SO2NC6OCONH23
_chemical_formula_sum              "C16 N3 O5 S1 H23"
_cell_length_a       30
_cell_length_b       30
_cell_length_c       30
_cell_angle_alpha    90
_cell_angle_beta     90
_cell_angle_gamma    90

_space_group_name_H-M_alt    "P 1"
_space_group_IT_number       1

loop_
  _space_group_symop_operation_xyz
  'x, y, z'

loop_
  _atom_site_type_symbol
  _atom_site_label
  _atom_site_symmetry_multiplicity
  _atom_site_fract_x
  _atom_site_fract_y
  _atom_site_fract_z
  _atom_site_occupancy
  C   C1        1.0  0.28519  0.05867  0.98635  1.0000
  N   N1        1.0  0.24228  0.04212  0.00029  1.0000
  C   C2        1.0  0.20370  0.06018  0.98305  1.0000
  O   O1        1.0  0.20273  0.09208  0.95757  1.0000
  C   C3        1.0  0.16215  0.03624  0.99761  1.0000
  C   C4        1.0  0.12555  0.03819  0.97225  1.0000
  C   C5        1.0  0.08299  0.01546  0.98456  1.0000
  C   C6        1.0  0.08530  0.98794  0.02642  1.0000
  C   C7        1.0  0.05243  0.96120  0.04139  1.0000
  C   C8        1.0  0.00936  0.95522  0.02038  1.0000
  C   C9        1.0  0.97902  0.92615  0.03575  1.0000
  S   S1        1.0  0.92814  0.92137  0.00862  1.0000
  O   O2        1.0  0.93676  0.90992  0.96249  1.0000
  O   O3        1.0  0.89950  0.89326  0.03548  1.0000
  N   N2        1.0  0.90567  0.97338  0.00930  1.0000
  C   C10       1.0  0.89221  0.99032  0.05344  1.0000
  C   C11       1.0  0.87423  0.98315  0.97274  1.0000
  C   C12       1.0  0.82928  0.95878  0.97702  1.0000
  C   C13       1.0  0.79170  0.99002  0.99108  1.0000
  C   C14       1.0  0.78902  0.03060  0.96055  1.0000
  C   C15       1.0  0.83440  0.04398  0.94201  1.0000
  O   O4        1.0  0.86900  0.03062  0.97159  1.0000
  C   C16       1.0  0.12690  0.98941  0.05388  1.0000
  O   O5        1.0  0.13045  0.97050  0.09002  1.0000
  N   N3        1.0  0.16188  0.01307  0.03691  1.0000
  H   H1        1.0  0.28476  0.09509  0.98429  1.0000
  H   H2        1.0  0.29295  0.04483  0.95360  1.0000
  H   H3        1.0  0.31009  0.04803  0.01061  1.0000
  H   H4        1.0  0.24080  0.01084  0.01270  1.0000
  H   H5        1.0  0.12588  0.05705  0.94126  1.0000
  H   H6        1.0  0.07347  0.99402  0.95651  1.0000
  H   H7        1.0  0.05711  0.04107  0.98829  1.0000
  H   H8        1.0  0.05783  0.94202  0.07197  1.0000
  H   H9        1.0  0.00152  0.97522  0.99117  1.0000
  H   H10       1.0  0.98429  0.90483  0.06427  1.0000
  H   H11       1.0  0.91912  0.98586  0.07763  1.0000
  H   H12       1.0  0.88543  0.02614  0.05209  1.0000
  H   H13       1.0  0.86245  0.97325  0.06576  1.0000
  H   H14       1.0  0.89005  0.97396  0.94109  1.0000
  H   H15       1.0  0.82077  0.94497  0.94418  1.0000
  H   H16       1.0  0.83078  0.93011  0.99955  1.0000
  H   H17       1.0  0.79747  0.00121  0.02540  1.0000
  H   H18       1.0  0.75971  0.97236  0.99120  1.0000
  H   H19       1.0  0.77468  0.05841  0.97949  1.0000
  H   H20       1.0  0.76608  0.02444  0.93277  1.0000
  H   H21       1.0  0.83600  0.08023  0.93801  1.0000
  H   H22       1.0  0.84014  0.02929  0.90903  1.0000
  H   H23       1.0  0.18877  0.01491  0.05719  1.0000
