data_image0
_chemical_formula_structural       CNC7OCH19
_chemical_formula_sum              "C9 N1 O1 H19"
_cell_length_a       30
_cell_length_b       30
_cell_length_c       30
_cell_angle_alpha    90
_cell_angle_beta     90
_cell_angle_gamma    90

_space_group_name_H-M_alt    "P 1"
_space_group_IT_number       1

loop_
  _space_group_symop_operation_xyz
  'x, y, z'

loop_
  _atom_site_type_symbol
  _atom_site_label
  _atom_site_symmetry_multiplicity
  _atom_site_fract_x
  _atom_site_fract_y
  _atom_site_fract_z
  _atom_site_occupancy
  C   C1        1.0  0.98887  0.09126  0.01624  1.0000
  N   N1        1.0  0.99347  0.05498  0.98444  1.0000
  C   C2        1.0  0.98017  0.01149  0.00280  1.0000
  C   C3        1.0  0.95305  0.98567  0.96671  1.0000
  C   C4        1.0  0.93631  0.94041  0.98371  1.0000
  C   C5        1.0  0.91260  0.01263  0.95050  1.0000
  C   C6        1.0  0.02052  0.98386  0.01850  1.0000
  C   C7        1.0  0.05989  0.00516  0.04480  1.0000
  C   C8        1.0  0.09092  0.97096  0.02194  1.0000
  O   O1        1.0  0.09895  0.93032  0.04622  1.0000
  C   C9        1.0  0.05600  0.96791  0.98420  1.0000
  H   H1        1.0  0.95394  0.09578  0.02582  1.0000
  H   H2        1.0  0.00871  0.08603  0.04636  1.0000
  H   H3        1.0  0.99994  0.12240  0.00080  1.0000
  H   H4        1.0  0.02476  0.05398  0.97144  1.0000
  H   H5        1.0  0.95805  0.01659  0.03155  1.0000
  H   H6        1.0  0.97447  0.97931  0.93771  1.0000
  H   H7        1.0  0.96391  0.91752  0.99033  1.0000
  H   H8        1.0  0.91499  0.92426  0.95884  1.0000
  H   H9        1.0  0.91691  0.94419  0.01440  1.0000
  H   H10       1.0  0.89052  0.02121  0.97828  1.0000
  H   H11       1.0  0.92276  0.04356  0.93404  1.0000
  H   H12       1.0  0.89318  0.99351  0.92619  1.0000
  H   H13       1.0  0.00764  0.95540  0.03788  1.0000
  H   H14       1.0  0.06853  0.03953  0.03614  1.0000
  H   H15       1.0  0.05733  0.00258  0.08108  1.0000
  H   H16       1.0  0.12275  0.98513  0.01100  1.0000
  H   H17       1.0  0.11801  0.93897  0.07097  1.0000
  H   H18       1.0  0.05037  0.93457  0.97055  1.0000
  H   H19       1.0  0.06249  0.99085  0.95654  1.0000
