data_image0
_chemical_formula_structural       CNC15NCOCO2CH26
_chemical_formula_sum              "C19 N2 O3 H26"
_cell_length_a       30
_cell_length_b       30
_cell_length_c       30
_cell_angle_alpha    90
_cell_angle_beta     90
_cell_angle_gamma    90

_space_group_name_H-M_alt    "P 1"
_space_group_IT_number       1

loop_
  _space_group_symop_operation_xyz
  'x, y, z'

loop_
  _atom_site_type_symbol
  _atom_site_label
  _atom_site_symmetry_multiplicity
  _atom_site_fract_x
  _atom_site_fract_y
  _atom_site_fract_z
  _atom_site_occupancy
  C   C1        1.0  0.04722  0.12455  0.98087  1.0000
  N   N1        1.0  0.03594  0.10059  0.02125  1.0000
  C   C2        1.0  0.03683  0.05486  0.02693  1.0000
  C   C3        1.0  0.00521  0.03647  0.05340  1.0000
  C   C4        1.0  0.00050  0.98907  0.06507  1.0000
  C   C5        1.0  0.02833  0.97329  0.09937  1.0000
  C   C6        1.0  0.02721  0.92878  0.11254  1.0000
  C   C7        1.0  0.99823  0.89944  0.09158  1.0000
  C   C8        1.0  0.97026  0.91469  0.05766  1.0000
  C   C9        1.0  0.97065  0.95964  0.04371  1.0000
  C   C10       1.0  0.93827  0.97251  0.00634  1.0000
  C   C11       1.0  0.90426  0.00771  0.02198  1.0000
  C   C12       1.0  0.86227  0.01096  0.99334  1.0000
  C   C13       1.0  0.87032  0.02064  0.94397  1.0000
  C   C14       1.0  0.88881  0.98057  0.91873  1.0000
  C   C15       1.0  0.93941  0.97539  0.92021  1.0000
  C   C16       1.0  0.96297  0.98716  0.96386  1.0000
  N   N2        1.0  0.06742  0.02639  0.00796  1.0000
  C   C17       1.0  0.10662  0.03516  0.98545  1.0000
  O   O1        1.0  0.12377  0.07095  0.97646  1.0000
  C   C18       1.0  0.13000  0.99127  0.97160  1.0000
  O   O2        1.0  0.11311  0.95498  0.97922  1.0000
  O   O3        1.0  0.16932  0.99921  0.95140  1.0000
  C   C19       1.0  0.19255  0.95995  0.93806  1.0000
  H   H1        1.0  0.02343  0.15183  0.97596  1.0000
  H   H2        1.0  0.04545  0.10329  0.95127  1.0000
  H   H3        1.0  0.08030  0.13953  0.98364  1.0000
  H   H4        1.0  0.01162  0.11609  0.03895  1.0000
  H   H5        1.0  0.98051  0.05753  0.06950  1.0000
  H   H6        1.0  0.05126  0.99592  0.11609  1.0000
  H   H7        1.0  0.04894  0.91713  0.13908  1.0000
  H   H8        1.0  0.99714  0.86464  0.10165  1.0000
  H   H9        1.0  0.94778  0.89086  0.04205  1.0000
  H   H10       1.0  0.91929  0.94225  0.99823  1.0000
  H   H11       1.0  0.91959  0.04082  0.02334  1.0000
  H   H12       1.0  0.89363  0.00008  0.05616  1.0000
  H   H13       1.0  0.84148  0.03781  0.00701  1.0000
  H   H14       1.0  0.84272  0.98026  0.99691  1.0000
  H   H15       1.0  0.83792  0.02908  0.92921  1.0000
  H   H16       1.0  0.89163  0.05000  0.93965  1.0000
  H   H17       1.0  0.87304  0.94988  0.93091  1.0000
  H   H18       1.0  0.87908  0.98331  0.88358  1.0000
  H   H19       1.0  0.94743  0.94080  0.91139  1.0000
  H   H20       1.0  0.95412  0.99590  0.89373  1.0000
  H   H21       1.0  0.99616  0.97183  0.96242  1.0000
  H   H22       1.0  0.96866  0.02326  0.96443  1.0000
  H   H23       1.0  0.06212  0.99321  0.01292  1.0000
  H   H24       1.0  0.19945  0.93863  0.96686  1.0000
  H   H25       1.0  0.22435  0.97005  0.92335  1.0000
  H   H26       1.0  0.17342  0.94178  0.91285  1.0000
