data_image0
_chemical_formula_structural       CNCOC8N2C5NH20
_chemical_formula_sum              "C15 N4 O1 H20"
_cell_length_a       30
_cell_length_b       30
_cell_length_c       30
_cell_angle_alpha    90
_cell_angle_beta     90
_cell_angle_gamma    90

_space_group_name_H-M_alt    "P 1"
_space_group_IT_number       1

loop_
  _space_group_symop_operation_xyz
  'x, y, z'

loop_
  _atom_site_type_symbol
  _atom_site_label
  _atom_site_symmetry_multiplicity
  _atom_site_fract_x
  _atom_site_fract_y
  _atom_site_fract_z
  _atom_site_occupancy
  C   C1        1.0  0.96733  0.15432  0.00888  1.0000
  N   N1        1.0  0.97296  0.10666  0.01047  1.0000
  C   C2        1.0  0.94272  0.07880  0.98933  1.0000
  O   O1        1.0  0.90815  0.09270  0.97212  1.0000
  C   C3        1.0  0.95500  0.02835  0.99077  1.0000
  C   C4        1.0  0.99861  0.02154  0.96697  1.0000
  C   C5        1.0  0.03848  0.01246  0.98544  1.0000
  C   C6        1.0  0.07929  0.00775  0.95552  1.0000
  C   C7        1.0  0.11249  0.97220  0.97184  1.0000
  C   C8        1.0  0.11719  0.97093  0.02195  1.0000
  C   C9        1.0  0.15754  0.94841  0.04070  1.0000
  C   C10       1.0  0.08481  0.98848  0.04731  1.0000
  N   N2        1.0  0.04686  0.00777  0.03048  1.0000
  N   N3        1.0  0.92130  0.00212  0.96680  1.0000
  C   C11       1.0  0.90652  0.96488  0.99045  1.0000
  C   C12       1.0  0.93490  0.92974  0.00102  1.0000
  C   C13       1.0  0.91817  0.89337  0.02451  1.0000
  C   C14       1.0  0.87353  0.89296  0.03660  1.0000
  C   C15       1.0  0.84757  0.92910  0.02446  1.0000
  N   N4        1.0  0.86316  0.96479  0.00180  1.0000
  H   H1        1.0  0.98934  0.16942  0.03366  1.0000
  H   H2        1.0  0.97629  0.16607  0.97557  1.0000
  H   H3        1.0  0.93270  0.16316  0.01597  1.0000
  H   H4        1.0  0.00414  0.09466  0.01574  1.0000
  H   H5        1.0  0.95646  0.01938  0.02619  1.0000
  H   H6        1.0  0.99648  0.02486  0.93087  1.0000
  H   H7        1.0  0.09634  0.04016  0.95496  1.0000
  H   H8        1.0  0.06989  0.00025  0.92099  1.0000
  H   H9        1.0  0.10173  0.93918  0.96038  1.0000
  H   H10       1.0  0.14495  0.97887  0.95641  1.0000
  H   H11       1.0  0.15914  0.91377  0.02933  1.0000
  H   H12       1.0  0.18783  0.96560  0.02983  1.0000
  H   H13       1.0  0.15732  0.94819  0.07720  1.0000
  H   H14       1.0  0.08589  0.98723  0.08350  1.0000
  H   H15       1.0  0.02080  0.00918  0.05201  1.0000
  H   H16       1.0  0.89322  0.02132  0.96309  1.0000
  H   H17       1.0  0.96951  0.93020  0.99058  1.0000
  H   H18       1.0  0.93978  0.86556  0.03288  1.0000
  H   H19       1.0  0.85924  0.86515  0.05469  1.0000
  H   H20       1.0  0.81237  0.93043  0.03281  1.0000
