data_image0
_chemical_formula_structural       CNCOC12OC2OH23
_chemical_formula_sum              "C16 N1 O3 H23"
_cell_length_a       30
_cell_length_b       30
_cell_length_c       30
_cell_angle_alpha    90
_cell_angle_beta     90
_cell_angle_gamma    90

_space_group_name_H-M_alt    "P 1"
_space_group_IT_number       1

loop_
  _space_group_symop_operation_xyz
  'x, y, z'

loop_
  _atom_site_type_symbol
  _atom_site_label
  _atom_site_symmetry_multiplicity
  _atom_site_fract_x
  _atom_site_fract_y
  _atom_site_fract_z
  _atom_site_occupancy
  C   C1        1.0  0.13853  0.09607  0.00241  1.0000
  N   N1        1.0  0.13005  0.05610  0.97719  1.0000
  C   C2        1.0  0.10467  0.05809  0.93879  1.0000
  O   O1        1.0  0.09166  0.09321  0.92225  1.0000
  C   C3        1.0  0.09448  0.01294  0.91824  1.0000
  C   C4        1.0  0.06498  0.98437  0.94743  1.0000
  C   C5        1.0  0.08143  0.94460  0.96624  1.0000
  C   C6        1.0  0.05475  0.91849  0.99406  1.0000
  C   C7        1.0  0.01149  0.93233  0.00253  1.0000
  C   C8        1.0  0.99453  0.97158  0.98388  1.0000
  C   C9        1.0  0.02101  0.99777  0.95634  1.0000
  C   C10       1.0  0.94678  0.98019  0.99889  1.0000
  C   C11       1.0  0.91698  0.99239  0.95909  1.0000
  C   C12       1.0  0.94705  0.01701  0.03522  1.0000
  C   C13       1.0  0.90252  0.03929  0.04749  1.0000
  C   C14       1.0  0.86838  0.00854  0.06873  1.0000
  O   O2        1.0  0.91157  0.07380  0.07923  1.0000
  C   C15       1.0  0.93453  0.93301  0.01701  1.0000
  C   C16       1.0  0.97791  0.91020  0.03199  1.0000
  O   O3        1.0  0.98646  0.91910  0.07764  1.0000
  H   H1        1.0  0.15561  0.12039  0.98134  1.0000
  H   H2        1.0  0.10678  0.11004  0.01358  1.0000
  H   H3        1.0  0.15918  0.08761  0.03112  1.0000
  H   H4        1.0  0.13053  0.02665  0.99385  1.0000
  H   H5        1.0  0.12616  0.99619  0.91110  1.0000
  H   H6        1.0  0.07797  0.01812  0.88605  1.0000
  H   H7        1.0  0.11532  0.93374  0.95929  1.0000
  H   H8        1.0  0.06767  0.88798  0.00869  1.0000
  H   H9        1.0  0.00805  0.02856  0.94226  1.0000
  H   H10       1.0  0.88164  0.99218  0.96826  1.0000
  H   H11       1.0  0.92111  0.96874  0.93151  1.0000
  H   H12       1.0  0.92503  0.02553  0.94610  1.0000
  H   H13       1.0  0.96934  0.04400  0.02426  1.0000
  H   H14       1.0  0.96287  0.00464  0.06583  1.0000
  H   H15       1.0  0.88771  0.05550  0.01837  1.0000
  H   H16       1.0  0.84012  0.02782  0.08153  1.0000
  H   H17       1.0  0.88267  0.99097  0.09739  1.0000
  H   H18       1.0  0.85543  0.98410  0.04500  1.0000
  H   H19       1.0  0.93103  0.09541  0.06491  1.0000
  H   H20       1.0  0.90997  0.93391  0.04383  1.0000
  H   H21       1.0  0.92007  0.91306  0.98985  1.0000
  H   H22       1.0  0.97635  0.87414  0.02680  1.0000
  H   H23       1.0  0.00963  0.94166  0.07926  1.0000
