data_image0
_chemical_formula_structural       CNC2NC11ONC8H29
_chemical_formula_sum              "C22 N3 O1 H29"
_cell_length_a       30
_cell_length_b       30
_cell_length_c       30
_cell_angle_alpha    90
_cell_angle_beta     90
_cell_angle_gamma    90

_space_group_name_H-M_alt    "P 1"
_space_group_IT_number       1

loop_
  _space_group_symop_operation_xyz
  'x, y, z'

loop_
  _atom_site_type_symbol
  _atom_site_label
  _atom_site_symmetry_multiplicity
  _atom_site_fract_x
  _atom_site_fract_y
  _atom_site_fract_z
  _atom_site_occupancy
  C   C1        1.0  0.83697  0.06981  0.07387  1.0000
  N   N1        1.0  0.84834  0.03312  0.04427  1.0000
  C   C2        1.0  0.87953  0.04592  0.00847  1.0000
  C   C3        1.0  0.85609  0.07377  0.97216  1.0000
  N   N2        1.0  0.90677  0.01042  0.98674  1.0000
  C   C4        1.0  0.88660  0.97524  0.96262  1.0000
  C   C5        1.0  0.91292  0.94877  0.93402  1.0000
  C   C6        1.0  0.89499  0.91363  0.90915  1.0000
  C   C7        1.0  0.84982  0.90395  0.91212  1.0000
  C   C8        1.0  0.82288  0.92949  0.93982  1.0000
  C   C9        1.0  0.84111  0.96466  0.96460  1.0000
  C   C10       1.0  0.95103  0.00855  0.00372  1.0000
  C   C11       1.0  0.96615  0.97083  0.02707  1.0000
  C   C12       1.0  0.00952  0.96890  0.04389  1.0000
  C   C13       1.0  0.03847  0.00460  0.03678  1.0000
  C   C14       1.0  0.08407  0.00233  0.05520  1.0000
  O   O1        1.0  0.08777  0.00071  0.09595  1.0000
  N   N3        1.0  0.12017  0.00229  0.02581  1.0000
  C   C15       1.0  0.11586  0.00099  0.97711  1.0000
  C   C16       1.0  0.15534  0.97824  0.95466  1.0000
  C   C17       1.0  0.19996  0.99930  0.96730  1.0000
  C   C18       1.0  0.19813  0.02527  0.01108  1.0000
  C   C19       1.0  0.16529  0.00540  0.04484  1.0000
  C   C20       1.0  0.18130  0.96032  0.06274  1.0000
  C   C21       1.0  0.02408  0.04260  0.01404  1.0000
  C   C22       1.0  0.98061  0.04433  0.99742  1.0000
  H   H1        1.0  0.81856  0.09606  0.05653  1.0000
  H   H2        1.0  0.81533  0.05741  0.10051  1.0000
  H   H3        1.0  0.86658  0.08425  0.08958  1.0000
  H   H4        1.0  0.86451  0.00918  0.06218  1.0000
  H   H5        1.0  0.90288  0.06948  0.02398  1.0000
  H   H6        1.0  0.84356  0.10530  0.98561  1.0000
  H   H7        1.0  0.87937  0.08207  0.94525  1.0000
  H   H8        1.0  0.82779  0.05627  0.95724  1.0000
  H   H9        1.0  0.94830  0.95585  0.93034  1.0000
  H   H10       1.0  0.91642  0.89410  0.88745  1.0000
  H   H11       1.0  0.83565  0.87672  0.89292  1.0000
  H   H12       1.0  0.78748  0.92222  0.94244  1.0000
  H   H13       1.0  0.81842  0.98310  0.98591  1.0000
  H   H14       1.0  0.94374  0.94287  0.03270  1.0000
  H   H15       1.0  0.02058  0.93981  0.06244  1.0000
  H   H16       1.0  0.08521  0.98359  0.96770  1.0000
  H   H17       1.0  0.11308  0.03555  0.96555  1.0000
  H   H18       1.0  0.15126  0.97888  0.91836  1.0000
  H   H19       1.0  0.15568  0.94295  0.96423  1.0000
  H   H20       1.0  0.21097  0.02186  0.94073  1.0000
  H   H21       1.0  0.22530  0.97303  0.96939  1.0000
  H   H22       1.0  0.23165  0.02770  0.02544  1.0000
  H   H23       1.0  0.18771  0.05957  0.00364  1.0000
  H   H24       1.0  0.16359  0.02829  0.07334  1.0000
  H   H25       1.0  0.18235  0.93476  0.03676  1.0000
  H   H26       1.0  0.21477  0.96331  0.07701  1.0000
  H   H27       1.0  0.15915  0.94799  0.08899  1.0000
  H   H28       1.0  0.04640  0.07074  0.00939  1.0000
  H   H29       1.0  0.96993  0.07364  0.97897  1.0000
