data_image0
_chemical_formula_structural       CNCOC4ClSH6
_chemical_formula_sum              "C6 N1 O1 Cl1 S1 H6"
_cell_length_a       30
_cell_length_b       30
_cell_length_c       30
_cell_angle_alpha    90
_cell_angle_beta     90
_cell_angle_gamma    90

_space_group_name_H-M_alt    "P 1"
_space_group_IT_number       1

loop_
  _space_group_symop_operation_xyz
  'x, y, z'

loop_
  _atom_site_type_symbol
  _atom_site_label
  _atom_site_symmetry_multiplicity
  _atom_site_fract_x
  _atom_site_fract_y
  _atom_site_fract_z
  _atom_site_occupancy
  C   C1        1.0  0.90032  0.97757  0.99691  1.0000
  N   N1        1.0  0.94440  0.99631  0.00053  1.0000
  C   C2        1.0  0.98053  0.96960  0.01117  1.0000
  O   O1        1.0  0.97548  0.93000  0.02036  1.0000
  C   C3        1.0  0.02365  0.99203  0.00984  1.0000
  C   C4        1.0  0.03400  0.03708  0.00824  1.0000
  C   C5        1.0  0.08094  0.04507  0.00731  1.0000
  C   C6        1.0  0.10428  0.00586  0.00848  1.0000
  Cl  Cl1       1.0  0.16122  0.00006  0.00799  1.0000
  S   S1        1.0  0.07145  0.96021  0.01080  1.0000
  H   H1        1.0  0.89368  0.95534  0.02502  1.0000
  H   H2        1.0  0.87614  0.00479  0.99666  1.0000
  H   H3        1.0  0.89810  0.95877  0.96576  1.0000
  H   H4        1.0  0.95004  0.02611  0.98600  1.0000
  H   H5        1.0  0.00942  0.06351  0.00824  1.0000
  H   H6        1.0  0.09636  0.07768  0.00609  1.0000
