data_image0
_chemical_formula_structural       CNC3NC6SNC5H21
_chemical_formula_sum              "C15 N3 S1 H21"
_cell_length_a       30
_cell_length_b       30
_cell_length_c       30
_cell_angle_alpha    90
_cell_angle_beta     90
_cell_angle_gamma    90

_space_group_name_H-M_alt    "P 1"
_space_group_IT_number       1

loop_
  _space_group_symop_operation_xyz
  'x, y, z'

loop_
  _atom_site_type_symbol
  _atom_site_label
  _atom_site_symmetry_multiplicity
  _atom_site_fract_x
  _atom_site_fract_y
  _atom_site_fract_z
  _atom_site_occupancy
  C   C1        1.0  0.00071  0.06625  0.97347  1.0000
  N   N1        1.0  0.97436  0.02555  0.97170  1.0000
  C   C2        1.0  0.97811  0.99909  0.01268  1.0000
  C   C3        1.0  0.00763  0.95690  0.00731  1.0000
  C   C4        1.0  0.05608  0.96809  0.00196  1.0000
  N   N2        1.0  0.08125  0.98444  0.03392  1.0000
  C   C5        1.0  0.12422  0.99110  0.01840  1.0000
  C   C6        1.0  0.16014  0.00835  0.04329  1.0000
  C   C7        1.0  0.20195  0.01338  0.02327  1.0000
  C   C8        1.0  0.20833  0.00145  0.97891  1.0000
  C   C9        1.0  0.17324  0.98424  0.95350  1.0000
  C   C10       1.0  0.13139  0.97935  0.97395  1.0000
  S   S1        1.0  0.08237  0.95939  0.95181  1.0000
  N   N3        1.0  0.93281  0.98728  0.02742  1.0000
  C   C11       1.0  0.90786  0.95734  0.99794  1.0000
  C   C12       1.0  0.85907  0.95329  0.01207  1.0000
  C   C13       1.0  0.83506  0.99812  0.00992  1.0000
  C   C14       1.0  0.86691  0.03745  0.01522  1.0000
  C   C15       1.0  0.90704  0.02542  0.04416  1.0000
  H   H1        1.0  0.99649  0.08467  0.94227  1.0000
  H   H2        1.0  0.03629  0.05950  0.97762  1.0000
  H   H3        1.0  0.98953  0.08808  0.00049  1.0000
  H   H4        1.0  0.98385  0.00698  0.94500  1.0000
  H   H5        1.0  0.99319  0.01898  0.03952  1.0000
  H   H6        1.0  0.00445  0.93607  0.03725  1.0000
  H   H7        1.0  0.99611  0.93642  0.97928  1.0000
  H   H8        1.0  0.15499  0.01758  0.07789  1.0000
  H   H9        1.0  0.22957  0.02669  0.04262  1.0000
  H   H10       1.0  0.24103  0.00551  0.96376  1.0000
  H   H11       1.0  0.17827  0.97490  0.91891  1.0000
  H   H12       1.0  0.90891  0.96856  0.96316  1.0000
  H   H13       1.0  0.92265  0.92396  0.99901  1.0000
  H   H14       1.0  0.85739  0.94022  0.04621  1.0000
  H   H15       1.0  0.84175  0.92903  0.99093  1.0000
  H   H16       1.0  0.81741  0.00138  0.97808  1.0000
  H   H17       1.0  0.80944  0.99911  0.03597  1.0000
  H   H18       1.0  0.87844  0.04829  0.98224  1.0000
  H   H19       1.0  0.84900  0.06583  0.02968  1.0000
  H   H20       1.0  0.92779  0.05513  0.04899  1.0000
  H   H21       1.0  0.89498  0.01664  0.07757  1.0000
