data_image0
_chemical_formula_structural       CNC2SC3OH13
_chemical_formula_sum              "C6 N1 S1 O1 H13"
_cell_length_a       30
_cell_length_b       30
_cell_length_c       30
_cell_angle_alpha    90
_cell_angle_beta     90
_cell_angle_gamma    90

_space_group_name_H-M_alt    "P 1"
_space_group_IT_number       1

loop_
  _space_group_symop_operation_xyz
  'x, y, z'

loop_
  _atom_site_type_symbol
  _atom_site_label
  _atom_site_symmetry_multiplicity
  _atom_site_fract_x
  _atom_site_fract_y
  _atom_site_fract_z
  _atom_site_occupancy
  C   C1        1.0  0.08372  0.96221  0.00533  1.0000
  N   N1        1.0  0.05945  0.98969  0.97357  1.0000
  C   C2        1.0  0.03398  0.02507  0.99549  1.0000
  C   C3        1.0  0.01189  0.05603  0.96075  1.0000
  S   S1        1.0  0.96860  0.02829  0.92776  1.0000
  C   C4        1.0  0.94618  0.99212  0.97120  1.0000
  C   C5        1.0  0.95750  0.00934  0.01788  1.0000
  C   C6        1.0  0.93372  0.98137  0.05310  1.0000
  O   O1        1.0  0.00410  0.00659  0.02762  1.0000
  H   H1        1.0  0.10374  0.93771  0.98717  1.0000
  H   H2        1.0  0.10666  0.98225  0.02543  1.0000
  H   H3        1.0  0.06132  0.94382  0.02750  1.0000
  H   H4        1.0  0.03780  0.97038  0.95597  1.0000
  H   H5        1.0  0.05756  0.04575  0.01430  1.0000
  H   H6        1.0  0.03686  0.06950  0.93776  1.0000
  H   H7        1.0  0.99623  0.08442  0.97754  1.0000
  H   H8        1.0  0.91007  0.99015  0.96640  1.0000
  H   H9        1.0  0.96012  0.95878  0.96602  1.0000
  H   H10       1.0  0.94657  0.04398  0.02216  1.0000
  H   H11       1.0  0.94450  0.94651  0.05156  1.0000
  H   H12       1.0  0.94192  0.99341  0.08659  1.0000
  H   H13       1.0  0.89751  0.98264  0.04888  1.0000
