data_image0
_chemical_formula_structural       CNC3NC2SCNC4NC5H22
_chemical_formula_sum              "C16 N4 S1 H22"
_cell_length_a       30
_cell_length_b       30
_cell_length_c       30
_cell_angle_alpha    90
_cell_angle_beta     90
_cell_angle_gamma    90

_space_group_name_H-M_alt    "P 1"
_space_group_IT_number       1

loop_
  _space_group_symop_operation_xyz
  'x, y, z'

loop_
  _atom_site_type_symbol
  _atom_site_label
  _atom_site_symmetry_multiplicity
  _atom_site_fract_x
  _atom_site_fract_y
  _atom_site_fract_z
  _atom_site_occupancy
  C   C1        1.0  0.94511  0.01992  0.10512  1.0000
  N   N1        1.0  0.94497  0.04490  0.06352  1.0000
  C   C2        1.0  0.95793  0.01994  0.02612  1.0000
  C   C3        1.0  0.92721  0.99907  0.99720  1.0000
  C   C4        1.0  0.94347  0.97451  0.96076  1.0000
  N   N2        1.0  0.98690  0.96839  0.95126  1.0000
  C   C5        1.0  0.01627  0.98843  0.97896  1.0000
  C   C6        1.0  0.00334  0.01366  0.01558  1.0000
  S   S1        1.0  0.05075  0.03334  0.04122  1.0000
  C   C7        1.0  0.08381  0.00684  0.00224  1.0000
  N   N3        1.0  0.12902  0.00828  0.00322  1.0000
  C   C8        1.0  0.15533  0.03936  0.02943  1.0000
  C   C9        1.0  0.20040  0.04043  0.00561  1.0000
  C   C10       1.0  0.20310  0.99496  0.98337  1.0000
  C   C11       1.0  0.15516  0.98693  0.96842  1.0000
  N   N4        1.0  0.06145  0.98448  0.97199  1.0000
  C   C12       1.0  0.91157  0.95056  0.93014  1.0000
  C   C13       1.0  0.86661  0.97359  0.92314  1.0000
  C   C14       1.0  0.85582  0.01020  0.95681  1.0000
  C   C15       1.0  0.87701  0.00276  0.00278  1.0000
  C   C16       1.0  0.85713  0.96232  0.02672  1.0000
  H   H1        1.0  0.97792  0.00571  0.11238  1.0000
  H   H2        1.0  0.92046  0.99310  0.10475  1.0000
  H   H3        1.0  0.93660  0.04246  0.13251  1.0000
  H   H4        1.0  0.91626  0.06210  0.05863  1.0000
  H   H5        1.0  0.15914  0.02679  0.06350  1.0000
  H   H6        1.0  0.14110  0.07297  0.03060  1.0000
  H   H7        1.0  0.22808  0.04674  0.02847  1.0000
  H   H8        1.0  0.20043  0.06670  0.98018  1.0000
  H   H9        1.0  0.22674  0.99409  0.95563  1.0000
  H   H10       1.0  0.21308  0.96971  0.00784  1.0000
  H   H11       1.0  0.14902  0.00297  0.93616  1.0000
  H   H12       1.0  0.14818  0.95120  0.96561  1.0000
  H   H13       1.0  0.92732  0.94529  0.89756  1.0000
  H   H14       1.0  0.90599  0.91721  0.94409  1.0000
  H   H15       1.0  0.84031  0.94818  0.92375  1.0000
  H   H16       1.0  0.86536  0.98799  0.88953  1.0000
  H   H17       1.0  0.81955  0.01375  0.95982  1.0000
  H   H18       1.0  0.86797  0.04205  0.94337  1.0000
  H   H19       1.0  0.86871  0.03233  0.02251  1.0000
  H   H20       1.0  0.86316  0.93105  0.00898  1.0000
  H   H21       1.0  0.82101  0.96619  0.03040  1.0000
  H   H22       1.0  0.87125  0.95854  0.06012  1.0000
