data_image0
_chemical_formula_structural       CNC7F3C4SC2NCH27
_chemical_formula_sum              "C15 N2 F3 S1 H27"
_cell_length_a       30
_cell_length_b       30
_cell_length_c       30
_cell_angle_alpha    90
_cell_angle_beta     90
_cell_angle_gamma    90

_space_group_name_H-M_alt    "P 1"
_space_group_IT_number       1

loop_
  _space_group_symop_operation_xyz
  'x, y, z'

loop_
  _atom_site_type_symbol
  _atom_site_label
  _atom_site_symmetry_multiplicity
  _atom_site_fract_x
  _atom_site_fract_y
  _atom_site_fract_z
  _atom_site_occupancy
  C   C1        1.0  0.14401  0.98162  0.96968  1.0000
  N   N1        1.0  0.11761  0.98629  0.01029  1.0000
  C   C2        1.0  0.06862  0.98300  0.00445  1.0000
  C   C3        1.0  0.05490  0.93952  0.97960  1.0000
  C   C4        1.0  0.01061  0.91594  0.99213  1.0000
  C   C5        1.0  0.96784  0.94331  0.00193  1.0000
  C   C6        1.0  0.95432  0.97078  0.96031  1.0000
  C   C7        1.0  0.93142  0.01668  0.96701  1.0000
  C   C8        1.0  0.88440  0.01456  0.94766  1.0000
  F   F1        1.0  0.86057  0.98147  0.96699  1.0000
  F   F2        1.0  0.88508  0.00673  0.90330  1.0000
  F   F3        1.0  0.86186  0.05293  0.95450  1.0000
  C   C9        1.0  0.95770  0.05532  0.94551  1.0000
  C   C10       1.0  0.98716  0.08379  0.97670  1.0000
  C   C11       1.0  0.02407  0.06248  0.00640  1.0000
  C   C12       1.0  0.01472  0.05799  0.05735  1.0000
  S   S1        1.0  0.95815  0.06749  0.07906  1.0000
  C   C13       1.0  0.94601  0.01318  0.10451  1.0000
  C   C14       1.0  0.93634  0.97571  0.07091  1.0000
  N   N2        1.0  0.97554  0.96799  0.04292  1.0000
  C   C15       1.0  0.05091  0.02572  0.98117  1.0000
  H   H1        1.0  0.17906  0.98786  0.97772  1.0000
  H   H2        1.0  0.13464  0.00553  0.94384  1.0000
  H   H3        1.0  0.14203  0.94796  0.95579  1.0000
  H   H4        1.0  0.12766  0.96232  0.03223  1.0000
  H   H5        1.0  0.05658  0.98043  0.03843  1.0000
  H   H6        1.0  0.08065  0.91407  0.98526  1.0000
  H   H7        1.0  0.05537  0.94540  0.94349  1.0000
  H   H8        1.0  0.01745  0.89477  0.02128  1.0000
  H   H9        1.0  0.00298  0.89228  0.96522  1.0000
  H   H10       1.0  0.94138  0.91875  0.00814  1.0000
  H   H11       1.0  0.98263  0.97433  0.93774  1.0000
  H   H12       1.0  0.93185  0.94899  0.94120  1.0000
  H   H13       1.0  0.92701  0.02492  0.00183  1.0000
  H   H14       1.0  0.93398  0.07891  0.93058  1.0000
  H   H15       1.0  0.97732  0.04351  0.91703  1.0000
  H   H16       1.0  0.00439  0.10726  0.95436  1.0000
  H   H17       1.0  0.96558  0.10543  0.99665  1.0000
  H   H18       1.0  0.04885  0.08975  0.00727  1.0000
  H   H19       1.0  0.03375  0.08480  0.07352  1.0000
  H   H20       1.0  0.02888  0.02821  0.07243  1.0000
  H   H21       1.0  0.91655  0.01772  0.12560  1.0000
  H   H22       1.0  0.97356  0.00413  0.12671  1.0000
  H   H23       1.0  0.92863  0.94506  0.08929  1.0000
  H   H24       1.0  0.90638  0.98371  0.05170  1.0000
  H   H25       1.0  0.99803  0.95149  0.06244  1.0000
  H   H26       1.0  0.03354  0.01606  0.95086  1.0000
  H   H27       1.0  0.07945  0.04385  0.96700  1.0000
