data_image0
_chemical_formula_structural       CNCNC4OC2OC3H16
_chemical_formula_sum              "C11 N2 O2 H16"
_cell_length_a       30
_cell_length_b       30
_cell_length_c       30
_cell_angle_alpha    90
_cell_angle_beta     90
_cell_angle_gamma    90

_space_group_name_H-M_alt    "P 1"
_space_group_IT_number       1

loop_
  _space_group_symop_operation_xyz
  'x, y, z'

loop_
  _atom_site_type_symbol
  _atom_site_label
  _atom_site_symmetry_multiplicity
  _atom_site_fract_x
  _atom_site_fract_y
  _atom_site_fract_z
  _atom_site_occupancy
  C   C1        1.0  0.88778  0.05123  0.00538  1.0000
  N   N1        1.0  0.85781  0.03536  0.97129  1.0000
  C   C2        1.0  0.85717  0.99288  0.95419  1.0000
  N   N2        1.0  0.88459  0.95985  0.95266  1.0000
  C   C3        1.0  0.92733  0.96306  0.97068  1.0000
  C   C4        1.0  0.93617  0.94659  0.01324  1.0000
  C   C5        1.0  0.97921  0.94893  0.03087  1.0000
  C   C6        1.0  0.01410  0.96706  0.00591  1.0000
  O   O1        1.0  0.05443  0.96738  0.02711  1.0000
  C   C7        1.0  0.09180  0.98397  0.00263  1.0000
  C   C8        1.0  0.13363  0.98021  0.03170  1.0000
  O   O2        1.0  0.13273  0.00865  0.06999  1.0000
  C   C9        1.0  0.14117  0.05415  0.06007  1.0000
  C   C10       1.0  0.00558  0.98269  0.96295  1.0000
  C   C11       1.0  0.96239  0.98041  0.94543  1.0000
  H   H1        1.0  0.92202  0.05333  0.99317  1.0000
  H   H2        1.0  0.87795  0.08493  0.01537  1.0000
  H   H3        1.0  0.88633  0.03010  0.03505  1.0000
  H   H4        1.0  0.82776  0.05092  0.97151  1.0000
  H   H5        1.0  0.82480  0.98682  0.93771  1.0000
  H   H6        1.0  0.90938  0.93192  0.03267  1.0000
  H   H7        1.0  0.98565  0.93626  0.06421  1.0000
  H   H8        1.0  0.09676  0.96364  0.97267  1.0000
  H   H9        1.0  0.08593  0.01874  0.99326  1.0000
  H   H10       1.0  0.13627  0.94609  0.04443  1.0000
  H   H11       1.0  0.16365  0.98709  0.01205  1.0000
  H   H12       1.0  0.14306  0.07247  0.09152  1.0000
  H   H13       1.0  0.11416  0.06845  0.04025  1.0000
  H   H14       1.0  0.17298  0.05789  0.04262  1.0000
  H   H15       1.0  0.03157  0.99668  0.94210  1.0000
  H   H16       1.0  0.95583  0.99227  0.91184  1.0000
