data_image0
_chemical_formula_structural       CNC5ONC4OC5OC7OH24
_chemical_formula_sum              "C22 N2 O4 H24"
_cell_length_a       30
_cell_length_b       30
_cell_length_c       30
_cell_angle_alpha    90
_cell_angle_beta     90
_cell_angle_gamma    90

_space_group_name_H-M_alt    "P 1"
_space_group_IT_number       1

loop_
  _space_group_symop_operation_xyz
  'x, y, z'

loop_
  _atom_site_type_symbol
  _atom_site_label
  _atom_site_symmetry_multiplicity
  _atom_site_fract_x
  _atom_site_fract_y
  _atom_site_fract_z
  _atom_site_occupancy
  C   C1        1.0  0.86211  0.08764  0.09374  1.0000
  N   N1        1.0  0.85146  0.09912  0.04788  1.0000
  C   C2        1.0  0.89041  0.11149  0.02144  1.0000
  C   C3        1.0  0.90736  0.07442  0.99044  1.0000
  C   C4        1.0  0.92594  0.03364  0.01521  1.0000
  C   C5        1.0  0.95024  0.99955  0.98531  1.0000
  C   C6        1.0  0.98807  0.01960  0.95794  1.0000
  O   O1        1.0  0.99111  0.01437  0.91746  1.0000
  N   N2        1.0  0.01920  0.04319  0.98229  1.0000
  C   C7        1.0  0.05909  0.06095  0.96179  1.0000
  C   C8        1.0  0.09780  0.02953  0.96773  1.0000
  C   C9        1.0  0.12751  0.03488  0.00352  1.0000
  C   C10       1.0  0.16310  0.00542  0.00984  1.0000
  O   O2        1.0  0.18918  0.01471  0.04614  1.0000
  C   C11       1.0  0.22401  0.98403  0.05590  1.0000
  C   C12       1.0  0.16915  0.97024  0.97997  1.0000
  C   C13       1.0  0.13959  0.96437  0.94441  1.0000
  C   C14       1.0  0.10404  0.99375  0.93838  1.0000
  C   C15       1.0  0.96939  0.96255  0.01464  1.0000
  O   O3        1.0  0.99487  0.96707  0.04600  1.0000
  C   C16       1.0  0.95257  0.91953  0.99926  1.0000
  C   C17       1.0  0.96302  0.87736  0.01467  1.0000
  C   C18       1.0  0.94181  0.84119  0.99433  1.0000
  C   C19       1.0  0.91089  0.84787  0.95961  1.0000
  C   C20       1.0  0.90067  0.89081  0.94470  1.0000
  C   C21       1.0  0.92218  0.92612  0.96510  1.0000
  C   C22       1.0  0.91700  0.97381  0.95650  1.0000
  O   O4        1.0  0.88885  0.98850  0.93119  1.0000
  H   H1        1.0  0.83127  0.08055  0.11191  1.0000
  H   H2        1.0  0.88333  0.05811  0.09607  1.0000
  H   H3        1.0  0.87860  0.11541  0.11078  1.0000
  H   H4        1.0  0.83394  0.07420  0.03278  1.0000
  H   H5        1.0  0.88034  0.13960  0.00022  1.0000
  H   H6        1.0  0.91769  0.12410  0.04236  1.0000
  H   H7        1.0  0.93328  0.08898  0.96926  1.0000
  H   H8        1.0  0.88027  0.06430  0.96811  1.0000
  H   H9        1.0  0.94860  0.04533  0.04152  1.0000
  H   H10       1.0  0.89842  0.01667  0.03238  1.0000
  H   H11       1.0  0.02124  0.03683  0.01549  1.0000
  H   H12       1.0  0.05352  0.06784  0.92633  1.0000
  H   H13       1.0  0.06612  0.09293  0.97803  1.0000
  H   H14       1.0  0.12308  0.06221  0.02698  1.0000
  H   H15       1.0  0.21098  0.95021  0.06089  1.0000
  H   H16       1.0  0.24953  0.98471  0.02982  1.0000
  H   H17       1.0  0.23977  0.99450  0.08714  1.0000
  H   H18       1.0  0.19645  0.94677  0.98341  1.0000
  H   H19       1.0  0.14428  0.93679  0.92129  1.0000
  H   H20       1.0  0.08112  0.98866  0.91060  1.0000
  H   H21       1.0  0.98684  0.87255  0.04152  1.0000
  H   H22       1.0  0.94918  0.80742  0.00542  1.0000
  H   H23       1.0  0.89473  0.81922  0.94426  1.0000
  H   H24       1.0  0.87679  0.89638  0.91807  1.0000
