data_image0
_chemical_formula_structural       CNC15ONC6OCH30
_chemical_formula_sum              "C23 N2 O2 H30"
_cell_length_a       30
_cell_length_b       30
_cell_length_c       30
_cell_angle_alpha    90
_cell_angle_beta     90
_cell_angle_gamma    90

_space_group_name_H-M_alt    "P 1"
_space_group_IT_number       1

loop_
  _space_group_symop_operation_xyz
  'x, y, z'

loop_
  _atom_site_type_symbol
  _atom_site_label
  _atom_site_symmetry_multiplicity
  _atom_site_fract_x
  _atom_site_fract_y
  _atom_site_fract_z
  _atom_site_occupancy
  C   C1        1.0  0.84799  0.84289  0.01711  1.0000
  N   N1        1.0  0.85606  0.88422  0.04123  1.0000
  C   C2        1.0  0.86924  0.92014  0.01073  1.0000
  C   C3        1.0  0.87671  0.96451  0.03533  1.0000
  C   C4        1.0  0.91617  0.96341  0.06631  1.0000
  C   C5        1.0  0.95409  0.98713  0.06389  1.0000
  C   C6        1.0  0.96757  0.02080  0.02872  1.0000
  C   C7        1.0  0.97092  0.06765  0.04984  1.0000
  C   C8        1.0  0.98512  0.10515  0.01805  1.0000
  C   C9        1.0  0.95441  0.11224  0.97877  1.0000
  C   C10       1.0  0.90918  0.12211  0.98512  1.0000
  C   C11       1.0  0.88104  0.12875  0.94866  1.0000
  C   C12       1.0  0.89784  0.12590  0.90547  1.0000
  C   C13       1.0  0.94283  0.11659  0.89871  1.0000
  C   C14       1.0  0.97100  0.10992  0.93515  1.0000
  C   C15       1.0  0.00905  0.00485  0.00304  1.0000
  C   C16       1.0  0.05300  0.00345  0.02852  1.0000
  O   O1        1.0  0.05682  0.01605  0.06715  1.0000
  N   N2        1.0  0.08689  0.98693  0.00196  1.0000
  C   C17       1.0  0.13232  0.98083  0.01274  1.0000
  C   C18       1.0  0.15065  0.99147  0.05416  1.0000
  C   C19       1.0  0.19596  0.98448  0.06224  1.0000
  C   C20       1.0  0.22315  0.96687  0.02902  1.0000
  C   C21       1.0  0.20524  0.95609  0.98744  1.0000
  C   C22       1.0  0.15991  0.96293  0.97903  1.0000
  O   O2        1.0  0.13886  0.95355  0.93932  1.0000
  C   C23       1.0  0.16538  0.93446  0.90495  1.0000
  H   H1        1.0  0.83856  0.81671  0.04069  1.0000
  H   H2        1.0  0.87805  0.83168  0.99972  1.0000
  H   H3        1.0  0.82088  0.84655  0.99297  1.0000
  H   H4        1.0  0.82792  0.89331  0.05796  1.0000
  H   H5        1.0  0.84295  0.92521  0.98583  1.0000
  H   H6        1.0  0.89980  0.91088  0.99289  1.0000
  H   H7        1.0  0.84696  0.97292  0.05489  1.0000
  H   H8        1.0  0.87995  0.99096  0.01045  1.0000
  H   H9        1.0  0.91272  0.94036  0.09422  1.0000
  H   H10       1.0  0.97854  0.98177  0.09032  1.0000
  H   H11       1.0  0.94106  0.02256  0.00368  1.0000
  H   H12       1.0  0.99423  0.06732  0.07799  1.0000
  H   H13       1.0  0.93847  0.07607  0.06457  1.0000
  H   H14       1.0  0.01925  0.09905  0.00650  1.0000
  H   H15       1.0  0.98659  0.13655  0.03678  1.0000
  H   H16       1.0  0.89552  0.12482  0.01859  1.0000
  H   H17       1.0  0.84602  0.13632  0.95402  1.0000
  H   H18       1.0  0.87594  0.13119  0.87711  1.0000
  H   H19       1.0  0.95605  0.11467  0.86504  1.0000
  H   H20       1.0  0.00608  0.10298  0.92920  1.0000
  H   H21       1.0  0.00272  0.97110  0.99027  1.0000
  H   H22       1.0  0.01417  0.02618  0.97382  1.0000
  H   H23       1.0  0.07918  0.97721  0.97046  1.0000
  H   H24       1.0  0.13054  0.00523  0.08089  1.0000
  H   H25       1.0  0.20989  0.99286  0.09464  1.0000
  H   H26       1.0  0.25840  0.96151  0.03552  1.0000
  H   H27       1.0  0.22756  0.94248  0.96247  1.0000
  H   H28       1.0  0.17905  0.90221  0.91522  1.0000
  H   H29       1.0  0.19180  0.95735  0.89448  1.0000
  H   H30       1.0  0.14373  0.92864  0.87617  1.0000
