data_image0
_chemical_formula_structural       CNSO2C4ONC10OH18
_chemical_formula_sum              "C15 N2 S1 O4 H18"
_cell_length_a       30
_cell_length_b       30
_cell_length_c       30
_cell_angle_alpha    90
_cell_angle_beta     90
_cell_angle_gamma    90

_space_group_name_H-M_alt    "P 1"
_space_group_IT_number       1

loop_
  _space_group_symop_operation_xyz
  'x, y, z'

loop_
  _atom_site_type_symbol
  _atom_site_label
  _atom_site_symmetry_multiplicity
  _atom_site_fract_x
  _atom_site_fract_y
  _atom_site_fract_z
  _atom_site_occupancy
  C   C1        1.0  0.21982  0.99043  0.03625  1.0000
  N   N1        1.0  0.21797  0.98831  0.98758  1.0000
  S   S1        1.0  0.18448  0.02503  0.96132  1.0000
  O   O1        1.0  0.18601  0.01411  0.91436  1.0000
  O   O2        1.0  0.19347  0.06934  0.97791  1.0000
  C   C2        1.0  0.12825  0.01302  0.97792  1.0000
  C   C3        1.0  0.09165  0.99884  0.95344  1.0000
  C   C4        1.0  0.05448  0.99504  0.98276  1.0000
  C   C5        1.0  0.00942  0.98114  0.97062  1.0000
  O   O3        1.0  0.00376  0.95458  0.94015  1.0000
  N   N2        1.0  0.97641  0.00197  0.99509  1.0000
  C   C6        1.0  0.93006  0.99455  0.99287  1.0000
  C   C7        1.0  0.91035  0.96076  0.96794  1.0000
  C   C8        1.0  0.86406  0.95534  0.96807  1.0000
  C   C9        1.0  0.83653  0.98350  0.99321  1.0000
  C   C10       1.0  0.78689  0.97668  0.99186  1.0000
  C   C11       1.0  0.85605  0.01815  0.01805  1.0000
  C   C12       1.0  0.82820  0.04979  0.04522  1.0000
  C   C13       1.0  0.90269  0.02293  0.01794  1.0000
  C   C14       1.0  0.07115  0.00526  0.02457  1.0000
  C   C15       1.0  0.05229  0.00551  0.07013  1.0000
  O   O4        1.0  0.11501  0.01646  0.02180  1.0000
  H   H1        1.0  0.22384  0.02461  0.04818  1.0000
  H   H2        1.0  0.19002  0.97542  0.05090  1.0000
  H   H3        1.0  0.24872  0.97124  0.04765  1.0000
  H   H4        1.0  0.21541  0.95716  0.97426  1.0000
  H   H5        1.0  0.09181  0.99236  0.91784  1.0000
  H   H6        1.0  0.98616  0.02737  0.01487  1.0000
  H   H7        1.0  0.92991  0.93770  0.94807  1.0000
  H   H8        1.0  0.84967  0.92861  0.94816  1.0000
  H   H9        1.0  0.77122  0.00261  0.97154  1.0000
  H   H10       1.0  0.77279  0.97738  0.02549  1.0000
  H   H11       1.0  0.77837  0.94425  0.97747  1.0000
  H   H12       1.0  0.81307  0.03237  0.07345  1.0000
  H   H13       1.0  0.84824  0.07719  0.05847  1.0000
  H   H14       1.0  0.80201  0.06464  0.02463  1.0000
  H   H15       1.0  0.91752  0.04953  0.03761  1.0000
  H   H16       1.0  0.02922  0.97766  0.07485  1.0000
  H   H17       1.0  0.03438  0.03671  0.07638  1.0000
  H   H18       1.0  0.07865  0.00245  0.09520  1.0000
