data_image0
_chemical_formula_structural       CNSO2C2NCOC10OC6H20
_chemical_formula_sum              "C20 N2 S1 O4 H20"
_cell_length_a       30
_cell_length_b       30
_cell_length_c       30
_cell_angle_alpha    90
_cell_angle_beta     90
_cell_angle_gamma    90

_space_group_name_H-M_alt    "P 1"
_space_group_IT_number       1

loop_
  _space_group_symop_operation_xyz
  'x, y, z'

loop_
  _atom_site_type_symbol
  _atom_site_label
  _atom_site_symmetry_multiplicity
  _atom_site_fract_x
  _atom_site_fract_y
  _atom_site_fract_z
  _atom_site_occupancy
  C   C1        1.0  0.19185  0.98369  0.02582  1.0000
  N   N1        1.0  0.19122  0.02105  0.99466  1.0000
  S   S1        1.0  0.17564  0.01262  0.94185  1.0000
  O   O1        1.0  0.20266  0.97691  0.92401  1.0000
  O   O2        1.0  0.17472  0.05609  0.92101  1.0000
  C   C2        1.0  0.11968  0.99300  0.94652  1.0000
  C   C3        1.0  0.08895  0.02893  0.96435  1.0000
  N   N2        1.0  0.04443  0.01213  0.97324  1.0000
  C   C4        1.0  0.03520  0.98686  0.01045  1.0000
  O   O3        1.0  0.06461  0.97637  0.03697  1.0000
  C   C5        1.0  0.98820  0.97179  0.01770  1.0000
  C   C6        1.0  0.98100  0.94143  0.05269  1.0000
  C   C7        1.0  0.93829  0.92483  0.06240  1.0000
  C   C8        1.0  0.93126  0.89450  0.09735  1.0000
  C   C9        1.0  0.88867  0.87816  0.10645  1.0000
  C   C10       1.0  0.85259  0.89189  0.08074  1.0000
  C   C11       1.0  0.85901  0.92202  0.04589  1.0000
  C   C12       1.0  0.90166  0.93880  0.03637  1.0000
  C   C13       1.0  0.90870  0.96913  0.00154  1.0000
  C   C14       1.0  0.95142  0.98609  0.99270  1.0000
  O   O4        1.0  0.95685  0.01519  0.95756  1.0000
  C   C15       1.0  0.93326  0.05461  0.95917  1.0000
  C   C16       1.0  0.92836  0.07990  0.99797  1.0000
  C   C17       1.0  0.90501  0.12012  0.99649  1.0000
  C   C18       1.0  0.88708  0.13521  0.95632  1.0000
  C   C19       1.0  0.89265  0.11027  0.91748  1.0000
  C   C20       1.0  0.91597  0.07006  0.91884  1.0000
  H   H1        1.0  0.20244  0.95276  0.00975  1.0000
  H   H2        1.0  0.21553  0.99106  0.05255  1.0000
  H   H3        1.0  0.15895  0.97918  0.04075  1.0000
  H   H4        1.0  0.18351  0.05168  0.00717  1.0000
  H   H5        1.0  0.12007  0.96296  0.96719  1.0000
  H   H6        1.0  0.10923  0.98289  0.91301  1.0000
  H   H7        1.0  0.10189  0.04322  0.99536  1.0000
  H   H8        1.0  0.08551  0.05617  0.94030  1.0000
  H   H9        1.0  0.01937  0.02034  0.95207  1.0000
  H   H10       1.0  0.00925  0.93037  0.07267  1.0000
  H   H11       1.0  0.95904  0.88330  0.11781  1.0000
  H   H12       1.0  0.88372  0.85468  0.13361  1.0000
  H   H13       1.0  0.81940  0.87916  0.08780  1.0000
  H   H14       1.0  0.83036  0.93236  0.02620  1.0000
  H   H15       1.0  0.88076  0.97979  0.98101  1.0000
  H   H16       1.0  0.94266  0.06900  0.02940  1.0000
  H   H17       1.0  0.90099  0.13983  0.02664  1.0000
  H   H18       1.0  0.86897  0.16659  0.95524  1.0000
  H   H19       1.0  0.87895  0.12223  0.88614  1.0000
  H   H20       1.0  0.92044  0.05079  0.88850  1.0000
