data_image0
_chemical_formula_structural       COCOC5NSO2C4NCOC4SC3H16
_chemical_formula_sum              "C19 O5 N2 S2 H16"
_cell_length_a       30
_cell_length_b       30
_cell_length_c       30
_cell_angle_alpha    90
_cell_angle_beta     90
_cell_angle_gamma    90

_space_group_name_H-M_alt    "P 1"
_space_group_IT_number       1

loop_
  _space_group_symop_operation_xyz
  'x, y, z'

loop_
  _atom_site_type_symbol
  _atom_site_label
  _atom_site_symmetry_multiplicity
  _atom_site_fract_x
  _atom_site_fract_y
  _atom_site_fract_z
  _atom_site_occupancy
  C   C1        1.0  0.74162  0.08382  0.01886  1.0000
  O   O1        1.0  0.78494  0.06975  0.00498  1.0000
  C   C2        1.0  0.79809  0.03044  0.02302  1.0000
  O   O2        1.0  0.77633  0.00746  0.04860  1.0000
  C   C3        1.0  0.84356  0.01833  0.00742  1.0000
  C   C4        1.0  0.86603  0.04260  0.97440  1.0000
  C   C5        1.0  0.90866  0.02971  0.96086  1.0000
  C   C6        1.0  0.92895  0.99259  0.98013  1.0000
  C   C7        1.0  0.90658  0.96825  0.01280  1.0000
  N   N1        1.0  0.92801  0.93147  0.03371  1.0000
  S   S1        1.0  0.96181  0.94236  0.07765  1.0000
  O   O3        1.0  0.96822  0.90012  0.10014  1.0000
  O   O4        1.0  0.94550  0.98103  0.10136  1.0000
  C   C8        1.0  0.01304  0.95603  0.05140  1.0000
  C   C9        1.0  0.02673  0.00039  0.04875  1.0000
  C   C10       1.0  0.06728  0.01090  0.02821  1.0000
  C   C11       1.0  0.09450  0.97731  0.01082  1.0000
  N   N2        1.0  0.13577  0.98496  0.98957  1.0000
  C   C12       1.0  0.15720  0.02543  0.98257  1.0000
  O   O5        1.0  0.14259  0.06143  0.99541  1.0000
  C   C13       1.0  0.19950  0.02138  0.95847  1.0000
  C   C14       1.0  0.21582  0.98734  0.93182  1.0000
  C   C15       1.0  0.25914  0.99667  0.91453  1.0000
  C   C16       1.0  0.27460  0.03762  0.92816  1.0000
  S   S2        1.0  0.23704  0.06465  0.96127  1.0000
  C   C17       1.0  0.08050  0.93281  0.01434  1.0000
  C   C18       1.0  0.03996  0.92203  0.03462  1.0000
  C   C19       1.0  0.86413  0.98107  0.02669  1.0000
  H   H1        1.0  0.73440  0.11569  0.00272  1.0000
  H   H2        1.0  0.74074  0.08873  0.05500  1.0000
  H   H3        1.0  0.71638  0.05962  0.00845  1.0000
  H   H4        1.0  0.85076  0.07164  0.95897  1.0000
  H   H5        1.0  0.92607  0.04865  0.93531  1.0000
  H   H6        1.0  0.96202  0.98273  0.96912  1.0000
  H   H7        1.0  0.90889  0.90414  0.04041  1.0000
  H   H8        1.0  0.00621  0.02706  0.06232  1.0000
  H   H9        1.0  0.07660  0.04584  0.02663  1.0000
  H   H10       1.0  0.15228  0.95735  0.97972  1.0000
  H   H11       1.0  0.19779  0.95704  0.92412  1.0000
  H   H12       1.0  0.27790  0.97458  0.89297  1.0000
  H   H13       1.0  0.30610  0.05320  0.92007  1.0000
  H   H14       1.0  0.10096  0.90581  0.00144  1.0000
  H   H15       1.0  0.02973  0.88734  0.03727  1.0000
  H   H16       1.0  0.84710  0.96259  0.05283  1.0000
