data_image0
_chemical_formula_structural       COCOCNCOC4SC4FCFCH11
_chemical_formula_sum              "C14 O3 N1 S1 F2 H11"
_cell_length_a       30
_cell_length_b       30
_cell_length_c       30
_cell_angle_alpha    90
_cell_angle_beta     90
_cell_angle_gamma    90

_space_group_name_H-M_alt    "P 1"
_space_group_IT_number       1

loop_
  _space_group_symop_operation_xyz
  'x, y, z'

loop_
  _atom_site_type_symbol
  _atom_site_label
  _atom_site_symmetry_multiplicity
  _atom_site_fract_x
  _atom_site_fract_y
  _atom_site_fract_z
  _atom_site_occupancy
  C   C1        1.0  0.90652  0.04708  0.09616  1.0000
  O   O1        1.0  0.92923  0.05149  0.05457  1.0000
  C   C2        1.0  0.96045  0.01930  0.04702  1.0000
  O   O2        1.0  0.96832  0.98791  0.07207  1.0000
  C   C3        1.0  0.98310  0.02634  0.00153  1.0000
  N   N1        1.0  0.02738  0.00619  0.00217  1.0000
  C   C4        1.0  0.06277  0.02939  0.02044  1.0000
  O   O3        1.0  0.05851  0.06869  0.03125  1.0000
  C   C5        1.0  0.10354  0.00354  0.02596  1.0000
  C   C6        1.0  0.11532  0.96240  0.00861  1.0000
  C   C7        1.0  0.15870  0.94849  0.02226  1.0000
  C   C8        1.0  0.17889  0.97946  0.04939  1.0000
  S   S1        1.0  0.14582  0.02498  0.05809  1.0000
  C   C9        1.0  0.95619  0.00662  0.96338  1.0000
  C   C10       1.0  0.94957  0.03172  0.92428  1.0000
  C   C11       1.0  0.92565  0.01407  0.88840  1.0000
  C   C12       1.0  0.90845  0.97115  0.89123  1.0000
  F   F1        1.0  0.88563  0.95434  0.85671  1.0000
  C   C13       1.0  0.91504  0.94584  0.92941  1.0000
  F   F2        1.0  0.89870  0.90435  0.93200  1.0000
  C   C14       1.0  0.93881  0.96313  0.96537  1.0000
  H   H1        1.0  0.88307  0.07482  0.09922  1.0000
  H   H2        1.0  0.93015  0.04883  0.12391  1.0000
  H   H3        1.0  0.88768  0.01586  0.09714  1.0000
  H   H4        1.0  0.98685  0.06242  0.99681  1.0000
  H   H5        1.0  0.02841  0.97263  0.00463  1.0000
  H   H6        1.0  0.09429  0.94290  0.98670  1.0000
  H   H7        1.0  0.17435  0.91744  0.01251  1.0000
  H   H8        1.0  0.21160  0.97771  0.06444  1.0000
  H   H9        1.0  0.96316  0.06529  0.92148  1.0000
  H   H10       1.0  0.92047  0.03347  0.85828  1.0000
  H   H11       1.0  0.94339  0.94217  0.99459  1.0000
