data_image0
_chemical_formula_structural       COCOC3SC3NC3NOC5H24
_chemical_formula_sum              "C16 O3 S1 N2 H24"
_cell_length_a       30
_cell_length_b       30
_cell_length_c       30
_cell_angle_alpha    90
_cell_angle_beta     90
_cell_angle_gamma    90

_space_group_name_H-M_alt    "P 1"
_space_group_IT_number       1

loop_
  _space_group_symop_operation_xyz
  'x, y, z'

loop_
  _atom_site_type_symbol
  _atom_site_label
  _atom_site_symmetry_multiplicity
  _atom_site_fract_x
  _atom_site_fract_y
  _atom_site_fract_z
  _atom_site_occupancy
  C   C1        1.0  0.76579  0.02719  0.98558  1.0000
  O   O1        1.0  0.81109  0.01478  0.97800  1.0000
  C   C2        1.0  0.83493  0.00859  0.01588  1.0000
  O   O2        1.0  0.82134  0.01350  0.05393  1.0000
  C   C3        1.0  0.88159  0.99769  0.00512  1.0000
  C   C4        1.0  0.89413  0.96639  0.97566  1.0000
  C   C5        1.0  0.86549  0.93622  0.94818  1.0000
  S   S1        1.0  0.95179  0.95966  0.97349  1.0000
  C   C6        1.0  0.96281  0.01042  0.00575  1.0000
  C   C7        1.0  0.00252  0.00611  0.03788  1.0000
  C   C8        1.0  0.04831  0.01512  0.01653  1.0000
  N   N1        1.0  0.06207  0.98273  0.98263  1.0000
  C   C9        1.0  0.07372  0.93943  0.00161  1.0000
  C   C10       1.0  0.09700  0.00035  0.95273  1.0000
  C   C11       1.0  0.14044  0.01081  0.97512  1.0000
  N   N2        1.0  0.14805  0.05116  0.99284  1.0000
  O   O3        1.0  0.19079  0.04952  0.01002  1.0000
  C   C12       1.0  0.20871  0.00867  0.00215  1.0000
  C   C13       1.0  0.25450  0.00147  0.01832  1.0000
  C   C14       1.0  0.17821  0.98288  0.97987  1.0000
  C   C15       1.0  0.91863  0.02002  0.03085  1.0000
  C   C16       1.0  0.91211  0.07049  0.03568  1.0000
  H   H1        1.0  0.74836  0.00119  0.00433  1.0000
  H   H2        1.0  0.76405  0.05914  0.00309  1.0000
  H   H3        1.0  0.74951  0.03089  0.95318  1.0000
  H   H4        1.0  0.83090  0.93540  0.95965  1.0000
  H   H5        1.0  0.87765  0.90180  0.94971  1.0000
  H   H6        1.0  0.86572  0.94687  0.91328  1.0000
  H   H7        1.0  0.96925  0.03705  0.98151  1.0000
  H   H8        1.0  0.99874  0.03118  0.06428  1.0000
  H   H9        1.0  0.00208  0.97387  0.05510  1.0000
  H   H10       1.0  0.04657  0.04852  0.00164  1.0000
  H   H11       1.0  0.07325  0.01706  0.04324  1.0000
  H   H12       1.0  0.04495  0.92398  0.01786  1.0000
  H   H13       1.0  0.10054  0.94166  0.02628  1.0000
  H   H14       1.0  0.08410  0.91621  0.97539  1.0000
  H   H15       1.0  0.10288  0.97624  0.92583  1.0000
  H   H16       1.0  0.08439  0.03031  0.93589  1.0000
  H   H17       1.0  0.27740  0.02534  0.00294  1.0000
  H   H18       1.0  0.25609  0.00566  0.05452  1.0000
  H   H19       1.0  0.26609  0.96783  0.01027  1.0000
  H   H20       1.0  0.18229  0.94892  0.96872  1.0000
  H   H21       1.0  0.91970  0.00526  0.06435  1.0000
  H   H22       1.0  0.90755  0.08654  0.00318  1.0000
  H   H23       1.0  0.94099  0.08590  0.05184  1.0000
  H   H24       1.0  0.88291  0.07825  0.05614  1.0000
