data_image0
_chemical_formula_structural       COCOC3NC2ONC3N2C8H22
_chemical_formula_sum              "C18 O3 N4 H22"
_cell_length_a       30
_cell_length_b       30
_cell_length_c       30
_cell_angle_alpha    90
_cell_angle_beta     90
_cell_angle_gamma    90

_space_group_name_H-M_alt    "P 1"
_space_group_IT_number       1

loop_
  _space_group_symop_operation_xyz
  'x, y, z'

loop_
  _atom_site_type_symbol
  _atom_site_label
  _atom_site_symmetry_multiplicity
  _atom_site_fract_x
  _atom_site_fract_y
  _atom_site_fract_z
  _atom_site_occupancy
  C   C1        1.0  0.24606  0.98591  0.01203  1.0000
  O   O1        1.0  0.20119  0.99538  0.02472  1.0000
  C   C2        1.0  0.17098  0.99145  0.99086  1.0000
  O   O2        1.0  0.18116  0.98096  0.95270  1.0000
  C   C3        1.0  0.12493  0.00099  0.00475  1.0000
  C   C4        1.0  0.11030  0.01384  0.04686  1.0000
  C   C5        1.0  0.13487  0.02195  0.08925  1.0000
  N   N1        1.0  0.06487  0.01839  0.04517  1.0000
  C   C6        1.0  0.04895  0.01016  0.00293  1.0000
  C   C7        1.0  0.00193  0.01217  0.99096  1.0000
  O   O3        1.0  0.98557  0.98822  0.96226  1.0000
  N   N2        1.0  0.97906  0.04471  0.01437  1.0000
  C   C8        1.0  0.93389  0.05390  0.01028  1.0000
  C   C9        1.0  0.91487  0.09515  0.01786  1.0000
  C   C10       1.0  0.86947  0.08993  0.00853  1.0000
  N   N3        1.0  0.85934  0.04824  0.99754  1.0000
  N   N4        1.0  0.89853  0.02576  0.00022  1.0000
  C   C11       1.0  0.89702  0.97696  0.99875  1.0000
  C   C12       1.0  0.86385  0.95665  0.03270  1.0000
  C   C13       1.0  0.81849  0.94532  0.01468  1.0000
  C   C14       1.0  0.80797  0.94807  0.97137  1.0000
  C   C15       1.0  0.84055  0.96194  0.93617  1.0000
  C   C16       1.0  0.88918  0.95919  0.95134  1.0000
  C   C17       1.0  0.08562  0.99855  0.97696  1.0000
  C   C18       1.0  0.08536  0.98607  0.92870  1.0000
  H   H1        1.0  0.24870  0.95253  0.99747  1.0000
  H   H2        1.0  0.25820  0.01123  0.98872  1.0000
  H   H3        1.0  0.26677  0.98701  0.04203  1.0000
  H   H4        1.0  0.11249  0.03348  0.11575  1.0000
  H   H5        1.0  0.15089  0.99123  0.10081  1.0000
  H   H6        1.0  0.16038  0.04761  0.08453  1.0000
  H   H7        1.0  0.04533  0.02542  0.07174  1.0000
  H   H8        1.0  0.99805  0.07020  0.02570  1.0000
  H   H9        1.0  0.93176  0.12552  0.02732  1.0000
  H   H10       1.0  0.84321  0.11464  0.00931  1.0000
  H   H11       1.0  0.92977  0.96591  0.01031  1.0000
  H   H12       1.0  0.87809  0.92538  0.04534  1.0000
  H   H13       1.0  0.86011  0.97863  0.06168  1.0000
  H   H14       1.0  0.79324  0.93513  0.03859  1.0000
  H   H15       1.0  0.77417  0.94061  0.96064  1.0000
  H   H16       1.0  0.83631  0.94041  0.90692  1.0000
  H   H17       1.0  0.83248  0.99589  0.92532  1.0000
  H   H18       1.0  0.91000  0.97676  0.92699  1.0000
  H   H19       1.0  0.89952  0.92407  0.95049  1.0000
  H   H20       1.0  0.05212  0.98783  0.91383  1.0000
  H   H21       1.0  0.09756  0.95196  0.92452  1.0000
  H   H22       1.0  0.10685  0.00867  0.90975  1.0000
