data_image0
_chemical_formula_structural       COCOC6NC5SCSNC7OCOC7NH17
_chemical_formula_sum              "C29 O4 N3 S2 H17"
_cell_length_a       30
_cell_length_b       30
_cell_length_c       30
_cell_angle_alpha    90
_cell_angle_beta     90
_cell_angle_gamma    90

_space_group_name_H-M_alt    "P 1"
_space_group_IT_number       1

loop_
  _space_group_symop_operation_xyz
  'x, y, z'

loop_
  _atom_site_type_symbol
  _atom_site_label
  _atom_site_symmetry_multiplicity
  _atom_site_fract_x
  _atom_site_fract_y
  _atom_site_fract_z
  _atom_site_occupancy
  C   C1        1.0  0.80532  0.20534  0.99963  1.0000
  O   O1        1.0  0.83555  0.17979  0.97317  1.0000
  C   C2        1.0  0.85053  0.14231  0.99346  1.0000
  O   O2        1.0  0.84040  0.12958  0.03082  1.0000
  C   C3        1.0  0.88176  0.11759  0.96405  1.0000
  C   C4        1.0  0.89323  0.13200  0.92102  1.0000
  C   C5        1.0  0.92279  0.10768  0.89471  1.0000
  C   C6        1.0  0.94177  0.06811  0.91055  1.0000
  C   C7        1.0  0.93092  0.05248  0.95358  1.0000
  C   C8        1.0  0.90126  0.07770  0.97928  1.0000
  N   N1        1.0  0.89646  0.05595  0.01951  1.0000
  C   C9        1.0  0.92163  0.01817  0.02028  1.0000
  C   C10       1.0  0.94374  0.01448  0.97964  1.0000
  C   C11       1.0  0.97148  0.97708  0.97491  1.0000
  C   C12       1.0  0.99541  0.96880  0.93334  1.0000
  C   C13       1.0  0.03975  0.96522  0.92888  1.0000
  S   S1        1.0  0.06464  0.95181  0.87909  1.0000
  C   C14       1.0  0.11723  0.94340  0.90419  1.0000
  S   S2        1.0  0.15769  0.91839  0.87495  1.0000
  N   N2        1.0  0.11605  0.95743  0.94834  1.0000
  C   C15       1.0  0.15378  0.95878  0.97775  1.0000
  C   C16       1.0  0.19612  0.97218  0.96312  1.0000
  C   C17       1.0  0.23247  0.97334  0.99235  1.0000
  C   C18       1.0  0.22704  0.96143  0.03683  1.0000
  C   C19       1.0  0.18522  0.94864  0.05220  1.0000
  C   C20       1.0  0.14893  0.94749  0.02296  1.0000
  C   C21       1.0  0.07450  0.97163  0.96389  1.0000
  O   O3        1.0  0.06639  0.98956  0.99967  1.0000
  C   C22       1.0  0.97433  0.94694  0.00993  1.0000
  O   O4        1.0  0.99817  0.90830  0.01221  1.0000
  C   C23       1.0  0.99048  0.89084  0.05350  1.0000
  C   C24       1.0  0.00888  0.85139  0.06971  1.0000
  C   C25       1.0  0.99678  0.83897  0.11301  1.0000
  C   C26       1.0  0.96769  0.86506  0.13837  1.0000
  C   C27       1.0  0.94966  0.90460  0.12120  1.0000
  C   C28       1.0  0.96143  0.91775  0.07774  1.0000
  C   C29       1.0  0.95092  0.95391  0.04923  1.0000
  N   N3        1.0  0.92395  0.98980  0.05500  1.0000
  H   H1        1.0  0.82159  0.21668  0.03026  1.0000
  H   H2        1.0  0.79540  0.23462  0.98032  1.0000
  H   H3        1.0  0.77544  0.18587  0.00728  1.0000
  H   H4        1.0  0.87917  0.16261  0.90758  1.0000
  H   H5        1.0  0.93130  0.11956  0.86152  1.0000
  H   H6        1.0  0.96488  0.04984  0.88950  1.0000
  H   H7        1.0  0.87701  0.06671  0.04491  1.0000
  H   H8        1.0  0.97386  0.96444  0.90449  1.0000
  H   H9        1.0  0.20174  0.98353  0.92920  1.0000
  H   H10       1.0  0.26496  0.98396  0.98030  1.0000
  H   H11       1.0  0.25525  0.96244  0.05954  1.0000
  H   H12       1.0  0.18062  0.93958  0.08698  1.0000
  H   H13       1.0  0.11688  0.93692  0.03627  1.0000
  H   H14       1.0  0.03135  0.83147  0.04967  1.0000
  H   H15       1.0  0.01029  0.80842  0.12716  1.0000
  H   H16       1.0  0.95885  0.85460  0.17196  1.0000
  H   H17       1.0  0.92707  0.92484  0.14099  1.0000
