data_image0
_chemical_formula_structural       COC5SCO3C6FH13
_chemical_formula_sum              "C13 O4 S1 F1 H13"
_cell_length_a       30
_cell_length_b       30
_cell_length_c       30
_cell_angle_alpha    90
_cell_angle_beta     90
_cell_angle_gamma    90

_space_group_name_H-M_alt    "P 1"
_space_group_IT_number       1

loop_
  _space_group_symop_operation_xyz
  'x, y, z'

loop_
  _atom_site_type_symbol
  _atom_site_label
  _atom_site_symmetry_multiplicity
  _atom_site_fract_x
  _atom_site_fract_y
  _atom_site_fract_z
  _atom_site_occupancy
  C   C1        1.0  0.89981  0.07058  0.96735  1.0000
  O   O1        1.0  0.93525  0.06460  0.99816  1.0000
  C   C2        1.0  0.96627  0.03093  0.98444  1.0000
  C   C3        1.0  0.01010  0.04164  0.00590  1.0000
  C   C4        1.0  0.02237  0.06671  0.04239  1.0000
  C   C5        1.0  0.06926  0.06381  0.04537  1.0000
  C   C6        1.0  0.08394  0.03690  0.01068  1.0000
  S   S1        1.0  0.13876  0.01928  0.99553  1.0000
  C   C7        1.0  0.13070  0.96316  0.97889  1.0000
  O   O2        1.0  0.16430  0.02017  0.03653  1.0000
  O   O3        1.0  0.15069  0.04588  0.95705  1.0000
  O   O4        1.0  0.04712  0.02354  0.98657  1.0000
  C   C8        1.0  0.94996  0.98467  0.99633  1.0000
  C   C9        1.0  0.94907  0.95090  0.96385  1.0000
  C   C10       1.0  0.93430  0.90803  0.97455  1.0000
  C   C11       1.0  0.92035  0.89825  0.01778  1.0000
  C   C12       1.0  0.92125  0.93134  0.05034  1.0000
  C   C13       1.0  0.93599  0.97403  0.03953  1.0000
  F   F1        1.0  0.93665  0.00493  0.07180  1.0000
  H   H1        1.0  0.87763  0.09641  0.98036  1.0000
  H   H2        1.0  0.88059  0.03985  0.96336  1.0000
  H   H3        1.0  0.91266  0.08165  0.93506  1.0000
  H   H4        1.0  0.97110  0.03364  0.94824  1.0000
  H   H5        1.0  0.99977  0.08471  0.06399  1.0000
  H   H6        1.0  0.09070  0.07920  0.06995  1.0000
  H   H7        1.0  0.16314  0.94936  0.96980  1.0000
  H   H8        1.0  0.11668  0.94442  0.00676  1.0000
  H   H9        1.0  0.10844  0.96229  0.95013  1.0000
  H   H10       1.0  0.95997  0.95775  0.92993  1.0000
  H   H11       1.0  0.93371  0.88221  0.94910  1.0000
  H   H12       1.0  0.90886  0.86491  0.02610  1.0000
  H   H13       1.0  0.91060  0.92426  0.08419  1.0000
