data_image0
_chemical_formula_structural       COCOC3NCOC3ONC6ClC6H25
_chemical_formula_sum              "C21 O4 N2 Cl1 H25"
_cell_length_a       30
_cell_length_b       30
_cell_length_c       30
_cell_angle_alpha    90
_cell_angle_beta     90
_cell_angle_gamma    90

_space_group_name_H-M_alt    "P 1"
_space_group_IT_number       1

loop_
  _space_group_symop_operation_xyz
  'x, y, z'

loop_
  _atom_site_type_symbol
  _atom_site_label
  _atom_site_symmetry_multiplicity
  _atom_site_fract_x
  _atom_site_fract_y
  _atom_site_fract_z
  _atom_site_occupancy
  C   C1        1.0  0.26631  0.97747  0.97560  1.0000
  O   O1        1.0  0.22299  0.95763  0.97459  1.0000
  C   C2        1.0  0.18929  0.98739  0.96822  1.0000
  O   O2        1.0  0.19391  0.02786  0.96395  1.0000
  C   C3        1.0  0.14466  0.96357  0.96796  1.0000
  C   C4        1.0  0.12060  0.97251  0.01220  1.0000
  C   C5        1.0  0.07007  0.97144  0.00696  1.0000
  N   N1        1.0  0.05428  0.00343  0.97366  1.0000
  C   C6        1.0  0.01133  0.02083  0.97173  1.0000
  O   O3        1.0  0.00059  0.04828  0.94312  1.0000
  C   C7        1.0  0.97771  0.00607  0.00716  1.0000
  C   C8        1.0  0.98340  0.03615  0.04780  1.0000
  C   C9        1.0  0.96904  0.00944  0.08702  1.0000
  O   O4        1.0  0.00187  0.00006  0.11581  1.0000
  N   N2        1.0  0.93037  0.99329  0.09596  1.0000
  C   C10       1.0  0.89478  0.00191  0.06878  1.0000
  C   C11       1.0  0.89210  0.00757  0.02428  1.0000
  C   C12       1.0  0.84680  0.01707  0.00670  1.0000
  C   C13       1.0  0.81396  0.98364  0.00668  1.0000
  C   C14       1.0  0.77144  0.99239  0.98978  1.0000
  C   C15       1.0  0.76161  0.03454  0.97280  1.0000
  Cl  Cl1       1.0  0.70930  0.04525  0.95184  1.0000
  C   C16       1.0  0.79383  0.06813  0.97280  1.0000
  C   C17       1.0  0.83636  0.05939  0.98973  1.0000
  C   C18       1.0  0.92921  0.00793  0.98924  1.0000
  C   C19       1.0  0.92232  0.96933  0.95594  1.0000
  C   C20       1.0  0.08560  0.01605  0.93839  1.0000
  C   C21       1.0  0.11754  0.97810  0.92721  1.0000
  H   H1        1.0  0.27332  0.99460  0.94419  1.0000
  H   H2        1.0  0.29084  0.95102  0.97984  1.0000
  H   H3        1.0  0.26916  0.00048  0.00373  1.0000
  H   H4        1.0  0.15092  0.92763  0.96452  1.0000
  H   H5        1.0  0.13037  0.00512  0.02581  1.0000
  H   H6        1.0  0.13100  0.94769  0.03694  1.0000
  H   H7        1.0  0.05463  0.97814  0.03926  1.0000
  H   H8        1.0  0.05904  0.93828  0.99615  1.0000
  H   H9        1.0  0.98471  0.97119  0.01573  1.0000
  H   H10       1.0  0.01811  0.04649  0.05251  1.0000
  H   H11       1.0  0.96375  0.06682  0.04558  1.0000
  H   H12       1.0  0.98850  0.98289  0.13990  1.0000
  H   H13       1.0  0.86378  0.00329  0.08786  1.0000
  H   H14       1.0  0.82144  0.95053  0.01950  1.0000
  H   H15       1.0  0.74630  0.96622  0.98984  1.0000
  H   H16       1.0  0.78613  0.10108  0.95980  1.0000
  H   H17       1.0  0.86104  0.08601  0.98987  1.0000
  H   H18       1.0  0.92565  0.03913  0.97039  1.0000
  H   H19       1.0  0.94874  0.96855  0.93074  1.0000
  H   H20       1.0  0.92223  0.93701  0.97304  1.0000
  H   H21       1.0  0.89072  0.97262  0.93796  1.0000
  H   H22       1.0  0.10375  0.04557  0.94996  1.0000
  H   H23       1.0  0.06741  0.02557  0.90826  1.0000
  H   H24       1.0  0.13940  0.98784  0.89959  1.0000
  H   H25       1.0  0.09781  0.94953  0.91544  1.0000
