data_image0
_chemical_formula_structural       COCOC6NC3H21
_chemical_formula_sum              "C11 O2 N1 H21"
_cell_length_a       30
_cell_length_b       30
_cell_length_c       30
_cell_angle_alpha    90
_cell_angle_beta     90
_cell_angle_gamma    90

_space_group_name_H-M_alt    "P 1"
_space_group_IT_number       1

loop_
  _space_group_symop_operation_xyz
  'x, y, z'

loop_
  _atom_site_type_symbol
  _atom_site_label
  _atom_site_symmetry_multiplicity
  _atom_site_fract_x
  _atom_site_fract_y
  _atom_site_fract_z
  _atom_site_occupancy
  C   C1        1.0  0.14388  0.97453  0.03358  1.0000
  O   O1        1.0  0.09844  0.98733  0.03964  1.0000
  C   C2        1.0  0.08091  0.01046  0.00466  1.0000
  O   O2        1.0  0.10117  0.02003  0.97060  1.0000
  C   C3        1.0  0.03244  0.02184  0.01418  1.0000
  C   C4        1.0  0.01621  0.06250  0.98741  1.0000
  C   C5        1.0  0.97035  0.05060  0.96874  1.0000
  C   C6        1.0  0.95376  0.01047  0.99635  1.0000
  C   C7        1.0  0.93331  0.02782  0.04060  1.0000
  C   C8        1.0  0.91772  0.98359  0.97072  1.0000
  N   N1        1.0  0.87687  0.00884  0.96238  1.0000
  C   C9        1.0  0.99855  0.98374  0.00424  1.0000
  C   C10       1.0  0.99574  0.95092  0.04360  1.0000
  C   C11       1.0  0.01276  0.95644  0.96276  1.0000
  H   H1        1.0  0.16508  0.00398  0.02982  1.0000
  H   H2        1.0  0.14717  0.95242  0.00474  1.0000
  H   H3        1.0  0.15455  0.95635  0.06331  1.0000
  H   H4        1.0  0.03096  0.03134  0.04954  1.0000
  H   H5        1.0  0.03866  0.07243  0.96042  1.0000
  H   H6        1.0  0.01339  0.09134  0.00972  1.0000
  H   H7        1.0  0.97373  0.04162  0.93346  1.0000
  H   H8        1.0  0.94774  0.07924  0.97019  1.0000
  H   H9        1.0  0.90652  0.05187  0.03439  1.0000
  H   H10       1.0  0.95776  0.04483  0.06165  1.0000
  H   H11       1.0  0.91900  0.00046  0.06010  1.0000
  H   H12       1.0  0.93031  0.97264  0.93826  1.0000
  H   H13       1.0  0.90899  0.95357  0.98961  1.0000
  H   H14       1.0  0.85511  0.98953  0.94483  1.0000
  H   H15       1.0  0.88375  0.03561  0.94262  1.0000
  H   H16       1.0  0.99033  0.96798  0.07540  1.0000
  H   H17       1.0  0.02662  0.93173  0.04704  1.0000
  H   H18       1.0  0.96853  0.92705  0.03890  1.0000
  H   H19       1.0  0.01605  0.97722  0.93296  1.0000
  H   H20       1.0  0.98881  0.92987  0.95547  1.0000
  H   H21       1.0  0.04485  0.93981  0.96806  1.0000
