data_image0
_chemical_formula_structural       COCOC2OC3FC2NCOH10
_chemical_formula_sum              "C10 O4 F1 N1 H10"
_cell_length_a       30
_cell_length_b       30
_cell_length_c       30
_cell_angle_alpha    90
_cell_angle_beta     90
_cell_angle_gamma    90

_space_group_name_H-M_alt    "P 1"
_space_group_IT_number       1

loop_
  _space_group_symop_operation_xyz
  'x, y, z'

loop_
  _atom_site_type_symbol
  _atom_site_label
  _atom_site_symmetry_multiplicity
  _atom_site_fract_x
  _atom_site_fract_y
  _atom_site_fract_z
  _atom_site_occupancy
  C   C1        1.0  0.17742  0.99095  0.98035  1.0000
  O   O1        1.0  0.13852  0.97573  0.00320  1.0000
  C   C2        1.0  0.10028  0.99664  0.99050  1.0000
  O   O2        1.0  0.09759  0.02480  0.96108  1.0000
  C   C3        1.0  0.06114  0.97851  0.01568  1.0000
  C   C4        1.0  0.03093  0.01505  0.03216  1.0000
  O   O3        1.0  0.04595  0.04863  0.05052  1.0000
  C   C5        1.0  0.98197  0.01017  0.02612  1.0000
  C   C6        1.0  0.95775  0.04723  0.01893  1.0000
  C   C7        1.0  0.91029  0.04489  0.01226  1.0000
  F   F1        1.0  0.88815  0.08332  0.00516  1.0000
  C   C8        1.0  0.88897  0.00558  0.01294  1.0000
  C   C9        1.0  0.83981  0.00054  0.00620  1.0000
  N   N1        1.0  0.91324  0.96719  0.02038  1.0000
  C   C10       1.0  0.95861  0.96628  0.02755  1.0000
  O   O4        1.0  0.97832  0.93127  0.03499  1.0000
  H   H1        1.0  0.18255  0.02661  0.98611  1.0000
  H   H2        1.0  0.20614  0.97288  0.99367  1.0000
  H   H3        1.0  0.17483  0.98383  0.94466  1.0000
  H   H4        1.0  0.04393  0.95602  0.99274  1.0000
  H   H5        1.0  0.07220  0.95936  0.04472  1.0000
  H   H6        1.0  0.97292  0.08009  0.01771  1.0000
  H   H7        1.0  0.82336  0.03264  0.00064  1.0000
  H   H8        1.0  0.82448  0.98513  0.03553  1.0000
  H   H9        1.0  0.83306  0.97941  0.97722  1.0000
  H   H10       1.0  0.89759  0.93725  0.02150  1.0000
