data_image0
_chemical_formula_structural       COCOC4NC5ClC2ClH15
_chemical_formula_sum              "C13 O2 N1 Cl2 H15"
_cell_length_a       30
_cell_length_b       30
_cell_length_c       30
_cell_angle_alpha    90
_cell_angle_beta     90
_cell_angle_gamma    90

_space_group_name_H-M_alt    "P 1"
_space_group_IT_number       1

loop_
  _space_group_symop_operation_xyz
  'x, y, z'

loop_
  _atom_site_type_symbol
  _atom_site_label
  _atom_site_symmetry_multiplicity
  _atom_site_fract_x
  _atom_site_fract_y
  _atom_site_fract_z
  _atom_site_occupancy
  C   C1        1.0  0.93225  0.09566  0.02444  1.0000
  O   O1        1.0  0.95092  0.05471  0.03992  1.0000
  C   C2        1.0  0.95077  0.02146  0.00903  1.0000
  O   O2        1.0  0.93556  0.02454  0.97125  1.0000
  C   C3        1.0  0.97216  0.97969  0.02779  1.0000
  C   C4        1.0  0.93718  0.94208  0.02932  1.0000
  C   C5        1.0  0.95644  0.89777  0.01360  1.0000
  C   C6        1.0  0.97756  0.90176  0.96730  1.0000
  N   N1        1.0  0.00094  0.94393  0.95874  1.0000
  C   C7        1.0  0.01401  0.96668  0.00047  1.0000
  C   C8        1.0  0.04628  0.00552  0.99314  1.0000
  C   C9        1.0  0.04681  0.02921  0.95256  1.0000
  C   C10       1.0  0.07549  0.06532  0.94593  1.0000
  C   C11       1.0  0.10417  0.07848  0.97983  1.0000
  Cl  Cl1       1.0  0.13937  0.12301  0.97173  1.0000
  C   C12       1.0  0.10447  0.05590  0.02029  1.0000
  C   C13       1.0  0.07574  0.01975  0.02693  1.0000
  Cl  Cl2       1.0  0.07830  0.99386  0.07843  1.0000
  H   H1        1.0  0.95119  0.10837  0.99596  1.0000
  H   H2        1.0  0.89712  0.09117  0.01568  1.0000
  H   H3        1.0  0.93440  0.11999  0.05149  1.0000
  H   H4        1.0  0.98238  0.98671  0.06220  1.0000
  H   H5        1.0  0.92473  0.93847  0.06351  1.0000
  H   H6        1.0  0.90797  0.95020  0.00885  1.0000
  H   H7        1.0  0.93030  0.87225  0.01306  1.0000
  H   H8        1.0  0.98155  0.88639  0.03765  1.0000
  H   H9        1.0  0.00095  0.87411  0.96251  1.0000
  H   H10       1.0  0.95169  0.89773  0.94180  1.0000
  H   H11       1.0  0.97932  0.96444  0.94204  1.0000
  H   H12       1.0  0.03308  0.94169  0.01923  1.0000
  H   H13       1.0  0.02474  0.01987  0.92532  1.0000
  H   H14       1.0  0.07514  0.08286  0.91422  1.0000
  H   H15       1.0  0.12699  0.06639  0.04665  1.0000
