data_image0
_chemical_formula_structural       COC5OC5NC5ClCH20
_chemical_formula_sum              "C17 O2 N1 Cl1 H20"
_cell_length_a       30
_cell_length_b       30
_cell_length_c       30
_cell_angle_alpha    90
_cell_angle_beta     90
_cell_angle_gamma    90

_space_group_name_H-M_alt    "P 1"
_space_group_IT_number       1

loop_
  _space_group_symop_operation_xyz
  'x, y, z'

loop_
  _atom_site_type_symbol
  _atom_site_label
  _atom_site_symmetry_multiplicity
  _atom_site_fract_x
  _atom_site_fract_y
  _atom_site_fract_z
  _atom_site_occupancy
  C   C1        1.0  0.89962  0.88987  0.01893  1.0000
  O   O1        1.0  0.91508  0.92060  0.05173  1.0000
  C   C2        1.0  0.93697  0.95677  0.03302  1.0000
  C   C3        1.0  0.98042  0.96274  0.04212  1.0000
  C   C4        1.0  0.00764  0.00037  0.02922  1.0000
  C   C5        1.0  0.05198  0.00253  0.03390  1.0000
  C   C6        1.0  0.08526  0.97071  0.05100  1.0000
  O   O2        1.0  0.08434  0.93384  0.06768  1.0000
  C   C7        1.0  0.12011  0.00426  0.03595  1.0000
  C   C8        1.0  0.14816  0.99259  0.99542  1.0000
  C   C9        1.0  0.16555  0.03544  0.97381  1.0000
  C   C10       1.0  0.13120  0.07344  0.97348  1.0000
  C   C11       1.0  0.08371  0.05714  0.98204  1.0000
  N   N1        1.0  0.08254  0.03274  0.02425  1.0000
  C   C12       1.0  0.90882  0.98761  0.00837  1.0000
  C   C13       1.0  0.87683  0.01149  0.02883  1.0000
  C   C14       1.0  0.84875  0.04207  0.00450  1.0000
  C   C15       1.0  0.84692  0.04106  0.95984  1.0000
  C   C16       1.0  0.87475  0.00888  0.93329  1.0000
  Cl  Cl1       1.0  0.89163  0.03466  0.88221  1.0000
  C   C17       1.0  0.91609  0.99149  0.95851  1.0000
  H   H1        1.0  0.92654  0.88008  0.99628  1.0000
  H   H2        1.0  0.88791  0.85998  0.03623  1.0000
  H   H3        1.0  0.87155  0.90370  0.00015  1.0000
  H   H4        1.0  0.99675  0.93717  0.06211  1.0000
  H   H5        1.0  0.99103  0.02926  0.01515  1.0000
  H   H6        1.0  0.13922  0.01861  0.06362  1.0000
  H   H7        1.0  0.17615  0.97112  0.00489  1.0000
  H   H8        1.0  0.12852  0.97386  0.97087  1.0000
  H   H9        1.0  0.17621  0.02799  0.93965  1.0000
  H   H10       1.0  0.19539  0.04692  0.99155  1.0000
  H   H11       1.0  0.14029  0.09754  0.99947  1.0000
  H   H12       1.0  0.13287  0.09139  0.94171  1.0000
  H   H13       1.0  0.06089  0.08561  0.98379  1.0000
  H   H14       1.0  0.07281  0.03590  0.95431  1.0000
  H   H15       1.0  0.87147  0.00876  0.06459  1.0000
  H   H16       1.0  0.82822  0.06504  0.02354  1.0000
  H   H17       1.0  0.82443  0.06332  0.94225  1.0000
  H   H18       1.0  0.85350  0.98071  0.92378  1.0000
  H   H19       1.0  0.92528  0.95899  0.94442  1.0000
  H   H20       1.0  0.94461  0.01371  0.95291  1.0000
