data_image0
_chemical_formula_structural       COCOC2SCN2C5ClNCNCH13
_chemical_formula_sum              "C12 O2 S1 N4 Cl1 H13"
_cell_length_a       30
_cell_length_b       30
_cell_length_c       30
_cell_angle_alpha    90
_cell_angle_beta     90
_cell_angle_gamma    90

_space_group_name_H-M_alt    "P 1"
_space_group_IT_number       1

loop_
  _space_group_symop_operation_xyz
  'x, y, z'

loop_
  _atom_site_type_symbol
  _atom_site_label
  _atom_site_symmetry_multiplicity
  _atom_site_fract_x
  _atom_site_fract_y
  _atom_site_fract_z
  _atom_site_occupancy
  C   C1        1.0  0.19154  0.06147  0.98042  1.0000
  O   O1        1.0  0.14930  0.04065  0.97347  1.0000
  C   C2        1.0  0.14490  0.00023  0.99401  1.0000
  O   O2        1.0  0.17397  0.98246  0.01652  1.0000
  C   C3        1.0  0.09879  0.98103  0.98524  1.0000
  C   C4        1.0  0.10016  0.93022  0.98735  1.0000
  S   S1        1.0  0.06074  0.00355  0.02732  1.0000
  C   C5        1.0  0.00974  0.99512  0.00195  1.0000
  N   N1        1.0  0.00309  0.97971  0.96164  1.0000
  N   N2        1.0  0.95796  0.97916  0.95429  1.0000
  C   C6        1.0  0.93769  0.99539  0.98988  1.0000
  C   C7        1.0  0.88964  0.00125  0.99412  1.0000
  C   C8        1.0  0.86052  0.96764  0.98013  1.0000
  C   C9        1.0  0.81460  0.97362  0.98405  1.0000
  C   C10       1.0  0.79943  0.01341  0.00177  1.0000
  Cl  Cl1       1.0  0.74354  0.02335  0.00814  1.0000
  N   N3        1.0  0.82616  0.04696  0.01523  1.0000
  C   C11       1.0  0.87055  0.04025  0.01052  1.0000
  N   N4        1.0  0.96968  0.00428  0.02177  1.0000
  C   C12       1.0  0.96242  0.01818  0.06718  1.0000
  H   H1        1.0  0.19688  0.06798  0.01592  1.0000
  H   H2        1.0  0.21836  0.04079  0.96686  1.0000
  H   H3        1.0  0.19147  0.09334  0.96273  1.0000
  H   H4        1.0  0.08866  0.99130  0.95167  1.0000
  H   H5        1.0  0.12442  0.91722  0.96332  1.0000
  H   H6        1.0  0.11029  0.91816  0.02033  1.0000
  H   H7        1.0  0.06780  0.91543  0.97925  1.0000
  H   H8        1.0  0.87353  0.93683  0.96605  1.0000
  H   H9        1.0  0.79157  0.94787  0.97344  1.0000
  H   H10       1.0  0.89086  0.06858  0.02042  1.0000
  H   H11       1.0  0.96587  0.05440  0.06876  1.0000
  H   H12       1.0  0.98668  0.00207  0.08905  1.0000
  H   H13       1.0  0.92918  0.00810  0.07809  1.0000
