data_image0
_chemical_formula_structural       COC4NCOCN2C4FC3NH15
_chemical_formula_sum              "C14 O2 N4 F1 H15"
_cell_length_a       30
_cell_length_b       30
_cell_length_c       30
_cell_angle_alpha    90
_cell_angle_beta     90
_cell_angle_gamma    90

_space_group_name_H-M_alt    "P 1"
_space_group_IT_number       1

loop_
  _space_group_symop_operation_xyz
  'x, y, z'

loop_
  _atom_site_type_symbol
  _atom_site_label
  _atom_site_symmetry_multiplicity
  _atom_site_fract_x
  _atom_site_fract_y
  _atom_site_fract_z
  _atom_site_occupancy
  C   C1        1.0  0.88155  0.07100  0.99597  1.0000
  O   O1        1.0  0.90047  0.03326  0.01757  1.0000
  C   C2        1.0  0.93493  0.01186  0.99253  1.0000
  C   C3        1.0  0.91541  0.98535  0.95371  1.0000
  C   C4        1.0  0.95947  0.98036  0.02457  1.0000
  C   C5        1.0  0.98280  0.00531  0.06243  1.0000
  N   N1        1.0  0.99097  0.97508  0.10086  1.0000
  C   C6        1.0  0.03105  0.97675  0.12481  1.0000
  O   O2        1.0  0.03636  0.95765  0.16050  1.0000
  C   C7        1.0  0.06585  0.00352  0.10044  1.0000
  N   N2        1.0  0.08611  0.98273  0.06534  1.0000
  N   N3        1.0  0.06187  0.00088  0.03094  1.0000
  C   C8        1.0  0.07129  0.99292  0.98558  1.0000
  C   C9        1.0  0.10196  0.95958  0.97394  1.0000
  C   C10       1.0  0.11122  0.95126  0.92910  1.0000
  C   C11       1.0  0.09026  0.97645  0.89636  1.0000
  F   F1        1.0  0.09918  0.96847  0.85336  1.0000
  C   C12       1.0  0.06038  0.01009  0.90755  1.0000
  C   C13       1.0  0.05089  0.01861  0.95233  1.0000
  C   C14       1.0  0.02818  0.02669  0.05092  1.0000
  N   N4        1.0  0.05133  0.04438  0.08453  1.0000
  H   H1        1.0  0.85845  0.08694  0.01922  1.0000
  H   H2        1.0  0.86279  0.06104  0.96637  1.0000
  H   H3        1.0  0.90745  0.09510  0.98707  1.0000
  H   H4        1.0  0.95797  0.03711  0.97986  1.0000
  H   H5        1.0  0.94123  0.96607  0.93659  1.0000
  H   H6        1.0  0.88937  0.96252  0.96528  1.0000
  H   H7        1.0  0.89996  0.00744  0.92914  1.0000
  H   H8        1.0  0.93464  0.95783  0.03936  1.0000
  H   H9        1.0  0.98295  0.95910  0.00641  1.0000
  H   H10       1.0  0.96132  0.03174  0.07570  1.0000
  H   H11       1.0  0.96497  0.96180  0.11770  1.0000
  H   H12       1.0  0.11868  0.93976  0.99937  1.0000
  H   H13       1.0  0.13473  0.92543  0.91960  1.0000
  H   H14       1.0  0.04513  0.02977  0.88127  1.0000
  H   H15       1.0  0.02884  0.04617  0.96036  1.0000
