data_image0
_chemical_formula_structural       COCOC13NCNC3SO2CONC2H21
_chemical_formula_sum              "C22 O5 N3 S1 H21"
_cell_length_a       30
_cell_length_b       30
_cell_length_c       30
_cell_angle_alpha    90
_cell_angle_beta     90
_cell_angle_gamma    90

_space_group_name_H-M_alt    "P 1"
_space_group_IT_number       1

loop_
  _space_group_symop_operation_xyz
  'x, y, z'

loop_
  _atom_site_type_symbol
  _atom_site_label
  _atom_site_symmetry_multiplicity
  _atom_site_fract_x
  _atom_site_fract_y
  _atom_site_fract_z
  _atom_site_occupancy
  C   C1        1.0  0.24466  0.89948  0.97034  1.0000
  O   O1        1.0  0.20790  0.92430  0.98767  1.0000
  C   C2        1.0  0.18121  0.94217  0.95581  1.0000
  O   O2        1.0  0.18645  0.93850  0.91562  1.0000
  C   C3        1.0  0.14382  0.96744  0.97644  1.0000
  C   C4        1.0  0.11276  0.98782  0.94820  1.0000
  C   C5        1.0  0.07708  0.01194  0.96596  1.0000
  C   C6        1.0  0.07165  0.01613  0.01230  1.0000
  C   C7        1.0  0.03345  0.04254  0.03219  1.0000
  C   C8        1.0  0.03400  0.09211  0.02139  1.0000
  C   C9        1.0  0.06811  0.12273  0.02768  1.0000
  C   C10       1.0  0.06033  0.16707  0.01574  1.0000
  C   C11       1.0  0.01899  0.18031  0.99809  1.0000
  C   C12       1.0  0.98459  0.14947  0.99205  1.0000
  C   C13       1.0  0.99247  0.10559  0.00381  1.0000
  C   C14       1.0  0.96426  0.06616  0.00220  1.0000
  C   C15       1.0  0.92042  0.06130  0.99636  1.0000
  N   N1        1.0  0.90028  0.02036  0.00135  1.0000
  C   C16       1.0  0.92465  0.98856  0.01832  1.0000
  N   N2        1.0  0.90962  0.94636  0.02677  1.0000
  C   C17       1.0  0.86830  0.92729  0.01050  1.0000
  C   C18       1.0  0.82684  0.94970  0.03020  1.0000
  C   C19       1.0  0.78719  0.92825  0.00684  1.0000
  S   S1        1.0  0.80583  0.91607  0.95156  1.0000
  O   O3        1.0  0.78662  0.94805  0.92097  1.0000
  O   O4        1.0  0.80198  0.86841  0.94464  1.0000
  C   C20       1.0  0.86321  0.92897  0.96001  1.0000
  O   O5        1.0  0.96913  0.99235  0.03055  1.0000
  N   N3        1.0  0.99049  0.02969  0.01240  1.0000
  C   C21       1.0  0.10300  0.99564  0.04039  1.0000
  C   C22       1.0  0.13874  0.97149  0.02267  1.0000
  H   H1        1.0  0.26345  0.88599  0.99851  1.0000
  H   H2        1.0  0.23285  0.87162  0.94995  1.0000
  H   H3        1.0  0.26673  0.92120  0.95106  1.0000
  H   H4        1.0  0.11614  0.98505  0.91217  1.0000
  H   H5        1.0  0.05328  0.02747  0.94334  1.0000
  H   H6        1.0  0.03188  0.03854  0.06854  1.0000
  H   H7        1.0  0.10011  0.11271  0.04127  1.0000
  H   H8        1.0  0.08657  0.19172  0.02011  1.0000
  H   H9        1.0  0.01375  0.21502  0.98901  1.0000
  H   H10       1.0  0.95276  0.15991  0.97843  1.0000
  H   H11       1.0  0.89876  0.08932  0.98919  1.0000
  H   H12       1.0  0.93460  0.92444  0.03296  1.0000
  H   H13       1.0  0.86786  0.89220  0.02098  1.0000
  H   H14       1.0  0.82655  0.98559  0.02359  1.0000
  H   H15       1.0  0.82485  0.94543  0.06640  1.0000
  H   H16       1.0  0.75824  0.95029  0.00556  1.0000
  H   H17       1.0  0.77813  0.89672  0.02274  1.0000
  H   H18       1.0  0.86930  0.96194  0.94581  1.0000
  H   H19       1.0  0.88398  0.90436  0.94301  1.0000
  H   H20       1.0  0.09982  0.99826  0.07644  1.0000
  H   H21       1.0  0.16237  0.95601  0.04540  1.0000
