data_image0
_chemical_formula_structural       COCOC2NCOCONC3OC7OCOCH20
_chemical_formula_sum              "C18 O7 N2 H20"
_cell_length_a       30
_cell_length_b       30
_cell_length_c       30
_cell_angle_alpha    90
_cell_angle_beta     90
_cell_angle_gamma    90

_space_group_name_H-M_alt    "P 1"
_space_group_IT_number       1

loop_
  _space_group_symop_operation_xyz
  'x, y, z'

loop_
  _atom_site_type_symbol
  _atom_site_label
  _atom_site_symmetry_multiplicity
  _atom_site_fract_x
  _atom_site_fract_y
  _atom_site_fract_z
  _atom_site_occupancy
  C   C1        1.0  0.75871  0.05923  0.91666  1.0000
  O   O1        1.0  0.77301  0.06247  0.96195  1.0000
  C   C2        1.0  0.80013  0.02847  0.97522  1.0000
  O   O2        1.0  0.81130  0.99692  0.95181  1.0000
  C   C3        1.0  0.81377  0.03473  0.02408  1.0000
  C   C4        1.0  0.77549  0.02118  0.05445  1.0000
  N   N1        1.0  0.85317  0.00793  0.03364  1.0000
  C   C5        1.0  0.89523  0.02365  0.02414  1.0000
  O   O3        1.0  0.90485  0.06209  0.01446  1.0000
  C   C6        1.0  0.93201  0.98763  0.02582  1.0000
  O   O4        1.0  0.92143  0.94930  0.03468  1.0000
  N   N2        1.0  0.97341  0.00524  0.01650  1.0000
  C   C7        1.0  0.01459  0.98291  0.01500  1.0000
  C   C8        1.0  0.01967  0.93749  0.02339  1.0000
  C   C9        1.0  0.06172  0.91746  0.02135  1.0000
  O   O5        1.0  0.06190  0.87271  0.03033  1.0000
  C   C10       1.0  0.10374  0.85051  0.02845  1.0000
  C   C11       1.0  0.09899  0.94324  0.01080  1.0000
  C   C12       1.0  0.09484  0.98906  0.00219  1.0000
  C   C13       1.0  0.13379  0.01622  0.99110  1.0000
  C   C14       1.0  0.14043  0.06066  0.98092  1.0000
  C   C15       1.0  0.18675  0.06619  0.97332  1.0000
  C   C16       1.0  0.20576  0.02484  0.97929  1.0000
  O   O6        1.0  0.24646  0.00750  0.97723  1.0000
  C   C17       1.0  0.28090  0.03800  0.96606  1.0000
  O   O7        1.0  0.17387  0.99453  0.99005  1.0000
  C   C18       1.0  0.05228  0.00839  0.00444  1.0000
  H   H1        1.0  0.73777  0.08814  0.90933  1.0000
  H   H2        1.0  0.78739  0.05974  0.89411  1.0000
  H   H3        1.0  0.73886  0.02903  0.91168  1.0000
  H   H4        1.0  0.82234  0.06988  0.02916  1.0000
  H   H5        1.0  0.74586  0.04157  0.04818  1.0000
  H   H6        1.0  0.78476  0.02506  0.08955  1.0000
  H   H7        1.0  0.76615  0.98625  0.04922  1.0000
  H   H8        1.0  0.85047  0.97408  0.03275  1.0000
  H   H9        1.0  0.97311  0.03850  0.00985  1.0000
  H   H10       1.0  0.99138  0.91649  0.03168  1.0000
  H   H11       1.0  0.11808  0.85226  0.99493  1.0000
  H   H12       1.0  0.09804  0.81534  0.03624  1.0000
  H   H13       1.0  0.12682  0.86380  0.05342  1.0000
  H   H14       1.0  0.13188  0.92822  0.00908  1.0000
  H   H15       1.0  0.11509  0.08620  0.97911  1.0000
  H   H16       1.0  0.20389  0.09661  0.96458  1.0000
  H   H17       1.0  0.31246  0.01974  0.96545  1.0000
  H   H18       1.0  0.28358  0.06443  0.99110  1.0000
  H   H19       1.0  0.27544  0.05230  0.93291  1.0000
  H   H20       1.0  0.04843  0.04381  0.99788  1.0000
