data_image0
_chemical_formula_structural       COCOC4NCOCNCOC4SC5H22
_chemical_formula_sum              "C18 O4 N2 S1 H22"
_cell_length_a       30
_cell_length_b       30
_cell_length_c       30
_cell_angle_alpha    90
_cell_angle_beta     90
_cell_angle_gamma    90

_space_group_name_H-M_alt    "P 1"
_space_group_IT_number       1

loop_
  _space_group_symop_operation_xyz
  'x, y, z'

loop_
  _atom_site_type_symbol
  _atom_site_label
  _atom_site_symmetry_multiplicity
  _atom_site_fract_x
  _atom_site_fract_y
  _atom_site_fract_z
  _atom_site_occupancy
  C   C1        1.0  0.25444  0.03643  0.09058  1.0000
  O   O1        1.0  0.21056  0.02362  0.07728  1.0000
  C   C2        1.0  0.19224  0.05072  0.04603  1.0000
  O   O2        1.0  0.21003  0.08337  0.02951  1.0000
  C   C3        1.0  0.14662  0.03528  0.03409  1.0000
  C   C4        1.0  0.12223  0.06012  0.00305  1.0000
  C   C5        1.0  0.07919  0.04697  0.99061  1.0000
  C   C6        1.0  0.05989  0.00885  0.00901  1.0000
  N   N1        1.0  0.01696  0.99315  0.99819  1.0000
  C   C7        1.0  0.98592  0.01283  0.97005  1.0000
  O   O3        1.0  0.99062  0.04847  0.95032  1.0000
  C   C8        1.0  0.94276  0.98441  0.96523  1.0000
  N   N2        1.0  0.90462  0.01194  0.95044  1.0000
  C   C9        1.0  0.88587  0.04145  0.98404  1.0000
  O   O4        1.0  0.91824  0.07016  0.00203  1.0000
  C   C10       1.0  0.86188  0.01686  0.02085  1.0000
  C   C11       1.0  0.82032  0.99680  0.01820  1.0000
  C   C12       1.0  0.80712  0.97612  0.05886  1.0000
  C   C13       1.0  0.83882  0.98113  0.09162  1.0000
  S   S1        1.0  0.88412  0.01033  0.07332  1.0000
  C   C14       1.0  0.95204  0.94478  0.93305  1.0000
  C   C15       1.0  0.95914  0.95933  0.88457  1.0000
  C   C16       1.0  0.91510  0.90954  0.93533  1.0000
  C   C17       1.0  0.08439  0.98399  0.04005  1.0000
  C   C18       1.0  0.12741  0.99702  0.05258  1.0000
  H   H1        1.0  0.27727  0.03532  0.06215  1.0000
  H   H2        1.0  0.25405  0.06969  0.10560  1.0000
  H   H3        1.0  0.26604  0.01264  0.11563  1.0000
  H   H4        1.0  0.13650  0.09003  0.98823  1.0000
  H   H5        1.0  0.06175  0.06741  0.96635  1.0000
  H   H6        1.0  0.00705  0.96524  0.01431  1.0000
  H   H7        1.0  0.93546  0.96989  0.99794  1.0000
  H   H8        1.0  0.87965  0.99190  0.93945  1.0000
  H   H9        1.0  0.86132  0.06280  0.96737  1.0000
  H   H10       1.0  0.93723  0.07777  0.97668  1.0000
  H   H11       1.0  0.80013  0.99712  0.98825  1.0000
  H   H12       1.0  0.77586  0.95878  0.06392  1.0000
  H   H13       1.0  0.83756  0.96918  0.12561  1.0000
  H   H14       1.0  0.98295  0.92836  0.94381  1.0000
  H   H15       1.0  0.98654  0.98324  0.88179  1.0000
  H   H16       1.0  0.92916  0.97462  0.87046  1.0000
  H   H17       1.0  0.96765  0.93055  0.86376  1.0000
  H   H18       1.0  0.88343  0.92199  0.92218  1.0000
  H   H19       1.0  0.92432  0.88014  0.91573  1.0000
  H   H20       1.0  0.90968  0.89861  0.96973  1.0000
  H   H21       1.0  0.07042  0.95410  0.05507  1.0000
  H   H22       1.0  0.14544  0.97694  0.07678  1.0000
