data_image0
_chemical_formula_structural       COCOC5ONC8NCH14
_chemical_formula_sum              "C16 O3 N2 H14"
_cell_length_a       30
_cell_length_b       30
_cell_length_c       30
_cell_angle_alpha    90
_cell_angle_beta     90
_cell_angle_gamma    90

_space_group_name_H-M_alt    "P 1"
_space_group_IT_number       1

loop_
  _space_group_symop_operation_xyz
  'x, y, z'

loop_
  _atom_site_type_symbol
  _atom_site_label
  _atom_site_symmetry_multiplicity
  _atom_site_fract_x
  _atom_site_fract_y
  _atom_site_fract_z
  _atom_site_occupancy
  C   C1        1.0  0.17561  0.97565  0.09912  1.0000
  O   O1        1.0  0.13809  0.98749  0.07225  1.0000
  C   C2        1.0  0.13990  0.97141  0.03008  1.0000
  O   O2        1.0  0.16973  0.94858  0.01444  1.0000
  C   C3        1.0  0.10009  0.98516  0.00441  1.0000
  C   C4        1.0  0.09602  0.97232  0.95980  1.0000
  C   C5        1.0  0.05857  0.98529  0.93546  1.0000
  C   C6        1.0  0.02587  0.01031  0.95681  1.0000
  C   C7        1.0  0.98688  0.02630  0.93050  1.0000
  O   O3        1.0  0.99393  0.03835  0.89177  1.0000
  N   N1        1.0  0.94491  0.02933  0.94960  1.0000
  C   C8        1.0  0.90987  0.05537  0.92755  1.0000
  C   C9        1.0  0.87095  0.05855  0.96035  1.0000
  C   C10       1.0  0.88190  0.02161  0.99203  1.0000
  C   C11       1.0  0.85462  0.00415  0.02504  1.0000
  C   C12       1.0  0.87126  0.96967  0.05136  1.0000
  C   C13       1.0  0.91443  0.95327  0.04426  1.0000
  C   C14       1.0  0.94172  0.97135  0.01098  1.0000
  C   C15       1.0  0.92543  0.00614  0.98543  1.0000
  N   N2        1.0  0.02916  0.02368  1.00000  1.0000
  C   C16       1.0  0.06607  0.01071  0.02271  1.0000
  H   H1        1.0  0.17780  0.93941  0.10272  1.0000
  H   H2        1.0  0.17088  0.99028  0.13217  1.0000
  H   H3        1.0  0.20634  0.98913  0.08479  1.0000
  H   H4        1.0  0.12197  0.95265  0.94382  1.0000
  H   H5        1.0  0.05513  0.97634  0.90056  1.0000
  H   H6        1.0  0.92251  0.08821  0.91781  1.0000
  H   H7        1.0  0.90014  0.03750  0.89715  1.0000
  H   H8        1.0  0.87122  0.09051  0.97796  1.0000
  H   H9        1.0  0.83890  0.05384  0.94365  1.0000
  H   H10       1.0  0.82115  0.01684  0.03028  1.0000
  H   H11       1.0  0.85061  0.95525  0.07742  1.0000
  H   H12       1.0  0.92683  0.92606  0.06475  1.0000
  H   H13       1.0  0.97447  0.95718  0.00589  1.0000
  H   H14       1.0  0.06702  0.02212  0.05709  1.0000
