data_image0
_chemical_formula_structural       COCONC3NCOC3ClCOC3OC3H19
_chemical_formula_sum              "C16 O5 N2 Cl1 H19"
_cell_length_a       30
_cell_length_b       30
_cell_length_c       30
_cell_angle_alpha    90
_cell_angle_beta     90
_cell_angle_gamma    90

_space_group_name_H-M_alt    "P 1"
_space_group_IT_number       1

loop_
  _space_group_symop_operation_xyz
  'x, y, z'

loop_
  _atom_site_type_symbol
  _atom_site_label
  _atom_site_symmetry_multiplicity
  _atom_site_fract_x
  _atom_site_fract_y
  _atom_site_fract_z
  _atom_site_occupancy
  C   C1        1.0  0.75311  0.94800  0.95526  1.0000
  O   O1        1.0  0.78566  0.97927  0.97030  1.0000
  C   C2        1.0  0.82723  0.96178  0.97503  1.0000
  O   O2        1.0  0.83684  0.92291  0.96713  1.0000
  N   N1        1.0  0.85719  0.99294  0.98966  1.0000
  C   C3        1.0  0.84720  0.03905  0.00006  1.0000
  C   C4        1.0  0.89273  0.06092  0.00432  1.0000
  C   C5        1.0  0.92174  0.02337  0.02301  1.0000
  N   N2        1.0  0.96892  0.03088  0.01544  1.0000
  C   C6        1.0  0.00010  0.00483  0.03709  1.0000
  O   O3        1.0  0.99025  0.97665  0.06494  1.0000
  C   C7        1.0  0.04742  0.01151  0.02395  1.0000
  C   C8        1.0  0.06301  0.05252  0.00833  1.0000
  C   C9        1.0  0.10775  0.05711  0.99616  1.0000
  Cl  Cl1       1.0  0.12491  0.10837  0.97604  1.0000
  C   C10       1.0  0.13744  0.02110  0.99950  1.0000
  O   O4        1.0  0.18047  0.02827  0.98547  1.0000
  C   C11       1.0  0.20044  0.99060  0.96434  1.0000
  C   C12       1.0  0.22214  0.96025  0.99854  1.0000
  C   C13       1.0  0.19206  0.95289  0.03858  1.0000
  O   O5        1.0  0.14749  0.94340  0.02480  1.0000
  C   C14       1.0  0.12201  0.98069  0.01738  1.0000
  C   C15       1.0  0.07707  0.97584  0.02873  1.0000
  C   C16       1.0  0.90319  0.98177  0.99962  1.0000
  H   H1        1.0  0.74954  0.92070  0.97920  1.0000
  H   H2        1.0  0.72114  0.96532  0.95273  1.0000
  H   H3        1.0  0.76193  0.93523  0.92224  1.0000
  H   H4        1.0  0.82658  0.05428  0.97413  1.0000
  H   H5        1.0  0.82901  0.03974  0.03172  1.0000
  H   H6        1.0  0.89221  0.09046  0.02570  1.0000
  H   H7        1.0  0.90473  0.07121  0.97133  1.0000
  H   H8        1.0  0.91599  0.02043  0.05905  1.0000
  H   H9        1.0  0.97800  0.04609  0.98673  1.0000
  H   H10       1.0  0.04096  0.08116  0.00611  1.0000
  H   H11       1.0  0.22604  0.00318  0.94151  1.0000
  H   H12       1.0  0.17627  0.97267  0.94348  1.0000
  H   H13       1.0  0.23003  0.92839  0.98249  1.0000
  H   H14       1.0  0.25365  0.97463  0.01015  1.0000
  H   H15       1.0  0.19301  0.98117  0.06182  1.0000
  H   H16       1.0  0.20404  0.92397  0.05742  1.0000
  H   H17       1.0  0.06532  0.94413  0.04195  1.0000
  H   H18       1.0  0.90496  0.95192  0.02054  1.0000
  H   H19       1.0  0.92022  0.97487  0.96803  1.0000
