data_image0
_chemical_formula_structural       COC2NC6NC5NCONC4ClC2H31
_chemical_formula_sum              "C21 O2 N4 Cl1 H31"
_cell_length_a       30
_cell_length_b       30
_cell_length_c       30
_cell_angle_alpha    90
_cell_angle_beta     90
_cell_angle_gamma    90

_space_group_name_H-M_alt    "P 1"
_space_group_IT_number       1

loop_
  _space_group_symop_operation_xyz
  'x, y, z'

loop_
  _atom_site_type_symbol
  _atom_site_label
  _atom_site_symmetry_multiplicity
  _atom_site_fract_x
  _atom_site_fract_y
  _atom_site_fract_z
  _atom_site_occupancy
  C   C1        1.0  0.15955  0.06481  0.90830  1.0000
  O   O1        1.0  0.12867  0.02863  0.90760  1.0000
  C   C2        1.0  0.13387  0.00292  0.94571  1.0000
  C   C3        1.0  0.10617  0.01007  0.98027  1.0000
  N   N1        1.0  0.07414  0.04271  0.98355  1.0000
  C   C4        1.0  0.03906  0.04512  0.01688  1.0000
  C   C5        1.0  0.00382  0.00870  0.01002  1.0000
  C   C6        1.0  0.96031  0.02951  0.02773  1.0000
  C   C7        1.0  0.95724  0.02383  0.07855  1.0000
  C   C8        1.0  0.91975  0.00908  0.00349  1.0000
  C   C9        1.0  0.87425  0.02599  0.02013  1.0000
  N   N2        1.0  0.83662  0.01068  0.99251  1.0000
  C   C10       1.0  0.83321  0.96170  0.99072  1.0000
  C   C11       1.0  0.78673  0.94579  0.97729  1.0000
  C   C12       1.0  0.75177  0.96046  0.01129  1.0000
  C   C13       1.0  0.76472  0.00378  0.03479  1.0000
  C   C14       1.0  0.79462  0.03264  0.00537  1.0000
  N   N3        1.0  0.96653  0.07596  0.01649  1.0000
  C   C15       1.0  0.01100  0.08757  0.01222  1.0000
  O   O2        1.0  0.02421  0.12555  0.00607  1.0000
  N   N4        1.0  0.16431  0.96893  0.94178  1.0000
  C   C16       1.0  0.19584  0.95375  0.97311  1.0000
  C   C17       1.0  0.20386  0.97458  0.01414  1.0000
  C   C18       1.0  0.23484  0.95713  0.04435  1.0000
  C   C19       1.0  0.25779  0.91818  0.03400  1.0000
  Cl  Cl1       1.0  0.29616  0.89686  0.07097  1.0000
  C   C20       1.0  0.24996  0.89652  0.99372  1.0000
  C   C21       1.0  0.21908  0.91422  0.96362  1.0000
  H   H1        1.0  0.15431  0.08614  0.93746  1.0000
  H   H2        1.0  0.19397  0.05264  0.90745  1.0000
  H   H3        1.0  0.15389  0.08493  0.87840  1.0000
  H   H4        1.0  0.10762  0.98838  0.00925  1.0000
  H   H5        1.0  0.06911  0.06060  0.95505  1.0000
  H   H6        1.0  0.05298  0.04430  0.05065  1.0000
  H   H7        1.0  0.01271  0.97759  0.02701  1.0000
  H   H8        1.0  0.00075  0.00093  0.97433  1.0000
  H   H9        1.0  0.92985  0.04350  0.09254  1.0000
  H   H10       1.0  0.98758  0.03512  0.09547  1.0000
  H   H11       1.0  0.95198  0.98882  0.08752  1.0000
  H   H12       1.0  0.92126  0.97271  0.00728  1.0000
  H   H13       1.0  0.92241  0.01607  0.96762  1.0000
  H   H14       1.0  0.86895  0.01585  0.05488  1.0000
  H   H15       1.0  0.87500  0.06257  0.01950  1.0000
  H   H16       1.0  0.85735  0.94889  0.96645  1.0000
  H   H17       1.0  0.84147  0.94684  0.02320  1.0000
  H   H18       1.0  0.77826  0.95929  0.94432  1.0000
  H   H19       1.0  0.78621  0.90938  0.97400  1.0000
  H   H20       1.0  0.74703  0.93434  0.03642  1.0000
  H   H21       1.0  0.71963  0.96442  0.99435  1.0000
  H   H22       1.0  0.73457  0.02216  0.04414  1.0000
  H   H23       1.0  0.78222  0.99602  0.06599  1.0000
  H   H24       1.0  0.80067  0.06477  0.02180  1.0000
  H   H25       1.0  0.77647  0.04080  0.97464  1.0000
  H   H26       1.0  0.94295  0.10013  0.01732  1.0000
  H   H27       1.0  0.17424  0.96483  0.90971  1.0000
  H   H28       1.0  0.18693  0.00539  0.02292  1.0000
  H   H29       1.0  0.24091  0.97429  0.07571  1.0000
  H   H30       1.0  0.26762  0.86598  0.98553  1.0000
  H   H31       1.0  0.21302  0.89667  0.93247  1.0000
