data_image0
_chemical_formula_structural       COCOC2NC3ONC3NC8H21
_chemical_formula_sum              "C18 O3 N3 H21"
_cell_length_a       30
_cell_length_b       30
_cell_length_c       30
_cell_angle_alpha    90
_cell_angle_beta     90
_cell_angle_gamma    90

_space_group_name_H-M_alt    "P 1"
_space_group_IT_number       1

loop_
  _space_group_symop_operation_xyz
  'x, y, z'

loop_
  _atom_site_type_symbol
  _atom_site_label
  _atom_site_symmetry_multiplicity
  _atom_site_fract_x
  _atom_site_fract_y
  _atom_site_fract_z
  _atom_site_occupancy
  C   C1        1.0  0.22665  0.95870  0.90020  1.0000
  O   O1        1.0  0.20864  0.98306  0.93699  1.0000
  C   C2        1.0  0.16552  0.97336  0.94613  1.0000
  O   O2        1.0  0.14212  0.94675  0.92612  1.0000
  C   C3        1.0  0.14929  0.99965  0.98454  1.0000
  C   C4        1.0  0.17548  0.03117  0.00609  1.0000
  N   N1        1.0  0.16136  0.05550  0.04145  1.0000
  C   C5        1.0  0.11912  0.04799  0.05583  1.0000
  C   C6        1.0  0.09011  0.01762  0.03618  1.0000
  C   C7        1.0  0.04475  0.01277  0.05514  1.0000
  O   O3        1.0  0.03737  0.02526  0.09333  1.0000
  N   N2        1.0  0.01245  0.99489  0.02781  1.0000
  C   C8        1.0  0.96645  0.98971  0.04252  1.0000
  C   C9        1.0  0.93601  0.02942  0.02963  1.0000
  C   C10       1.0  0.94627  0.07158  0.05655  1.0000
  N   N3        1.0  0.88789  0.01779  0.03393  1.0000
  C   C11       1.0  0.87191  0.00425  0.07802  1.0000
  C   C12       1.0  0.86933  0.99618  0.99674  1.0000
  C   C13       1.0  0.84907  0.95409  0.99901  1.0000
  C   C14       1.0  0.83103  0.93362  0.96114  1.0000
  C   C15       1.0  0.83255  0.95506  0.92007  1.0000
  C   C16       1.0  0.85191  0.99704  0.91695  1.0000
  C   C17       1.0  0.86994  0.01725  0.95489  1.0000
  C   C18       1.0  0.10579  0.99276  0.00006  1.0000
  H   H1        1.0  0.22638  0.92292  0.90728  1.0000
  H   H2        1.0  0.20804  0.96602  0.86969  1.0000
  H   H3        1.0  0.26120  0.96930  0.89549  1.0000
  H   H4        1.0  0.20948  0.03826  0.99580  1.0000
  H   H5        1.0  0.10902  0.06791  0.08441  1.0000
  H   H6        1.0  0.01861  0.98926  0.99517  1.0000
  H   H7        1.0  0.96590  0.98420  0.07863  1.0000
  H   H8        1.0  0.95447  0.95906  0.02668  1.0000
  H   H9        1.0  0.94361  0.03810  0.99492  1.0000
  H   H10       1.0  0.97917  0.08479  0.04792  1.0000
  H   H11       1.0  0.92175  0.09772  0.04955  1.0000
  H   H12       1.0  0.94599  0.06526  0.09249  1.0000
  H   H13       1.0  0.88512  0.97166  0.08783  1.0000
  H   H14       1.0  0.83539  0.00300  0.07886  1.0000
  H   H15       1.0  0.88178  0.02845  0.10345  1.0000
  H   H16       1.0  0.84737  0.93591  0.03025  1.0000
  H   H17       1.0  0.81575  0.90089  0.96393  1.0000
  H   H18       1.0  0.81841  0.93927  0.89072  1.0000
  H   H19       1.0  0.85271  0.01439  0.88517  1.0000
  H   H20       1.0  0.88370  0.05063  0.95174  1.0000
  H   H21       1.0  0.08520  0.96751  0.98427  1.0000
