data_image0
_chemical_formula_structural       COCOC5OC3SOC4ClC3H21
_chemical_formula_sum              "C17 O4 S1 Cl1 H21"
_cell_length_a       30
_cell_length_b       30
_cell_length_c       30
_cell_angle_alpha    90
_cell_angle_beta     90
_cell_angle_gamma    90

_space_group_name_H-M_alt    "P 1"
_space_group_IT_number       1

loop_
  _space_group_symop_operation_xyz
  'x, y, z'

loop_
  _atom_site_type_symbol
  _atom_site_label
  _atom_site_symmetry_multiplicity
  _atom_site_fract_x
  _atom_site_fract_y
  _atom_site_fract_z
  _atom_site_occupancy
  C   C1        1.0  0.19867  0.08919  0.01924  1.0000
  O   O1        1.0  0.16585  0.05499  0.02369  1.0000
  C   C2        1.0  0.14902  0.03980  0.98409  1.0000
  O   O2        1.0  0.16113  0.05439  0.94775  1.0000
  C   C3        1.0  0.11352  0.00171  0.99137  1.0000
  C   C4        1.0  0.13523  0.95592  0.98497  1.0000
  C   C5        1.0  0.07004  0.00693  0.96361  1.0000
  C   C6        1.0  0.04149  0.00369  0.00622  1.0000
  C   C7        1.0  0.01064  0.96197  0.01110  1.0000
  O   O3        1.0  0.02644  0.92370  0.01044  1.0000
  C   C8        1.0  0.95973  0.96843  0.01629  1.0000
  C   C9        1.0  0.93851  0.92330  0.02828  1.0000
  C   C10       1.0  0.94999  0.00189  0.05362  1.0000
  S   S1        1.0  0.93929  0.98754  0.96136  1.0000
  O   O4        1.0  0.95763  0.03347  0.95371  1.0000
  C   C11       1.0  0.88071  0.99544  0.97272  1.0000
  C   C12       1.0  0.86424  0.03702  0.98607  1.0000
  C   C13       1.0  0.81874  0.04287  0.99409  1.0000
  C   C14       1.0  0.78954  0.00724  0.98823  1.0000
  Cl  Cl1       1.0  0.73353  0.01434  0.99815  1.0000
  C   C15       1.0  0.80543  0.96591  0.97421  1.0000
  C   C16       1.0  0.85096  0.96008  0.96622  1.0000
  C   C17       1.0  0.08455  0.00444  0.03433  1.0000
  H   H1        1.0  0.20977  0.09859  0.05268  1.0000
  H   H2        1.0  0.18434  0.11865  0.00315  1.0000
  H   H3        1.0  0.22751  0.07690  0.00055  1.0000
  H   H4        1.0  0.11135  0.92868  0.98924  1.0000
  H   H5        1.0  0.16213  0.95094  0.00915  1.0000
  H   H6        1.0  0.14949  0.95295  0.95150  1.0000
  H   H7        1.0  0.06401  0.98078  0.93884  1.0000
  H   H8        1.0  0.06673  0.03914  0.94663  1.0000
  H   H9        1.0  0.02302  0.03483  0.01123  1.0000
  H   H10       1.0  0.94205  0.89901  0.00119  1.0000
  H   H11       1.0  0.95436  0.90896  0.05795  1.0000
  H   H12       1.0  0.90295  0.92635  0.03583  1.0000
  H   H13       1.0  0.95815  0.03622  0.04434  1.0000
  H   H14       1.0  0.91476  0.00160  0.06319  1.0000
  H   H15       1.0  0.96934  0.99391  0.08358  1.0000
  H   H16       1.0  0.88673  0.06521  0.99011  1.0000
  H   H17       1.0  0.80638  0.07526  0.00459  1.0000
  H   H18       1.0  0.78259  0.93819  0.96930  1.0000
  H   H19       1.0  0.86282  0.92778  0.95479  1.0000
  H   H20       1.0  0.08845  0.97650  0.05754  1.0000
  H   H21       1.0  0.08817  0.03527  0.05364  1.0000
