data_image0
_chemical_formula_structural       COCOC7NC9SO2CH33
_chemical_formula_sum              "C19 O4 N1 S1 H33"
_cell_length_a       30
_cell_length_b       30
_cell_length_c       30
_cell_angle_alpha    90
_cell_angle_beta     90
_cell_angle_gamma    90

_space_group_name_H-M_alt    "P 1"
_space_group_IT_number       1

loop_
  _space_group_symop_operation_xyz
  'x, y, z'

loop_
  _atom_site_type_symbol
  _atom_site_label
  _atom_site_symmetry_multiplicity
  _atom_site_fract_x
  _atom_site_fract_y
  _atom_site_fract_z
  _atom_site_occupancy
  C   C1        1.0  0.16637  0.95184  0.06744  1.0000
  O   O1        1.0  0.15538  0.99135  0.04322  1.0000
  C   C2        1.0  0.13500  0.98374  0.00331  1.0000
  O   O2        1.0  0.12834  0.94648  0.98786  1.0000
  C   C3        1.0  0.12223  0.02729  0.97927  1.0000
  C   C4        1.0  0.15181  0.03052  0.93737  1.0000
  C   C5        1.0  0.13181  0.06875  0.00830  1.0000
  C   C6        1.0  0.07189  0.02746  0.96639  1.0000
  C   C7        1.0  0.05645  0.99235  0.93198  1.0000
  C   C8        1.0  0.01252  0.97316  0.94934  1.0000
  C   C9        1.0  0.99634  0.00694  0.98356  1.0000
  N   N1        1.0  0.96280  0.98980  0.01483  1.0000
  C   C10       1.0  0.91401  0.99348  0.00574  1.0000
  C   C11       1.0  0.89552  0.04219  0.01058  1.0000
  C   C12       1.0  0.91675  0.06810  0.04930  1.0000
  C   C13       1.0  0.89669  0.07107  0.96843  1.0000
  C   C14       1.0  0.90138  0.96949  0.96226  1.0000
  C   C15       1.0  0.85285  0.95635  0.96876  1.0000
  C   C16       1.0  0.84897  0.94366  0.01791  1.0000
  C   C17       1.0  0.89036  0.96290  0.04100  1.0000
  C   C18       1.0  0.92333  0.92670  0.05494  1.0000
  S   S1        1.0  0.97519  0.95488  0.05752  1.0000
  O   O3        1.0  0.01030  0.92452  0.04495  1.0000
  O   O4        1.0  0.97680  0.98095  0.09803  1.0000
  C   C19       1.0  0.03938  0.02261  0.00577  1.0000
  H   H1        1.0  0.18736  0.92968  0.04737  1.0000
  H   H2        1.0  0.13589  0.93474  0.07810  1.0000
  H   H3        1.0  0.18514  0.96169  0.09716  1.0000
  H   H4        1.0  0.18722  0.03132  0.94640  1.0000
  H   H5        1.0  0.14735  0.00184  0.91520  1.0000
  H   H6        1.0  0.14443  0.06077  0.91823  1.0000
  H   H7        1.0  0.11377  0.06762  0.04008  1.0000
  H   H8        1.0  0.16742  0.07149  0.01607  1.0000
  H   H9        1.0  0.12205  0.09946  0.99105  1.0000
  H   H10       1.0  0.06497  0.06011  0.95104  1.0000
  H   H11       1.0  0.08031  0.96552  0.92595  1.0000
  H   H12       1.0  0.05104  0.00878  0.89974  1.0000
  H   H13       1.0  0.98866  0.96835  0.92220  1.0000
  H   H14       1.0  0.01854  0.94038  0.96411  1.0000
  H   H15       1.0  0.98260  0.03542  0.96559  1.0000
  H   H16       1.0  0.85990  0.03942  0.01879  1.0000
  H   H17       1.0  0.95199  0.07528  0.04304  1.0000
  H   H18       1.0  0.89981  0.10014  0.05405  1.0000
  H   H19       1.0  0.91415  0.04979  0.08075  1.0000
  H   H20       1.0  0.88148  0.10365  0.97503  1.0000
  H   H21       1.0  0.87729  0.05610  0.94144  1.0000
  H   H22       1.0  0.93035  0.07740  0.95635  1.0000
  H   H23       1.0  0.90644  0.98949  0.93225  1.0000
  H   H24       1.0  0.92127  0.93909  0.95785  1.0000
  H   H25       1.0  0.83092  0.98469  0.96147  1.0000
  H   H26       1.0  0.84302  0.92897  0.94674  1.0000
  H   H27       1.0  0.81842  0.95793  0.03198  1.0000
  H   H28       1.0  0.84674  0.90742  0.02197  1.0000
  H   H29       1.0  0.88067  0.98160  0.07088  1.0000
  H   H30       1.0  0.92632  0.90011  0.03018  1.0000
  H   H31       1.0  0.91549  0.91237  0.08746  1.0000
  H   H32       1.0  0.05205  0.99858  0.03006  1.0000
  H   H33       1.0  0.03446  0.05424  0.02332  1.0000
