data_image0
_chemical_formula_structural       COCONC8NCOC2NCOH21
_chemical_formula_sum              "C14 O4 N3 H21"
_cell_length_a       30
_cell_length_b       30
_cell_length_c       30
_cell_angle_alpha    90
_cell_angle_beta     90
_cell_angle_gamma    90

_space_group_name_H-M_alt    "P 1"
_space_group_IT_number       1

loop_
  _space_group_symop_operation_xyz
  'x, y, z'

loop_
  _atom_site_type_symbol
  _atom_site_label
  _atom_site_symmetry_multiplicity
  _atom_site_fract_x
  _atom_site_fract_y
  _atom_site_fract_z
  _atom_site_occupancy
  C   C1        1.0  0.17538  0.05758  0.03040  1.0000
  O   O1        1.0  0.12786  0.05608  0.03321  1.0000
  C   C2        1.0  0.10891  0.02430  0.00703  1.0000
  O   O2        1.0  0.12980  0.99777  0.98433  1.0000
  N   N1        1.0  0.06374  0.02634  0.01273  1.0000
  C   C3        1.0  0.03223  0.00100  0.99070  1.0000
  C   C4        1.0  0.98836  0.00121  0.00209  1.0000
  C   C5        1.0  0.96919  0.03404  0.03631  1.0000
  C   C6        1.0  0.97418  0.01609  0.08384  1.0000
  C   C7        1.0  0.92022  0.04711  0.02751  1.0000
  C   C8        1.0  0.90821  0.04095  0.97839  1.0000
  C   C9        1.0  0.86060  0.05607  0.96888  1.0000
  C   C10       1.0  0.91434  0.99159  0.96707  1.0000
  N   N2        1.0  0.95686  0.97306  0.98228  1.0000
  C   C11       1.0  0.96078  0.92642  0.98015  1.0000
  O   O3        1.0  0.93356  0.90259  0.96067  1.0000
  C   C12       1.0  0.99919  0.90551  0.00551  1.0000
  C   C13       1.0  0.04126  0.90132  0.97783  1.0000
  N   N3        1.0  0.04727  0.93460  0.94367  1.0000
  C   C14       1.0  0.04606  0.97967  0.94746  1.0000
  O   O4        1.0  0.05558  0.00330  0.91529  1.0000
  H   H1        1.0  0.18986  0.02635  0.04248  1.0000
  H   H2        1.0  0.18707  0.08473  0.05173  1.0000
  H   H3        1.0  0.18601  0.06444  0.99617  1.0000
  H   H4        1.0  0.05449  0.04728  0.03730  1.0000
  H   H5        1.0  0.98806  0.06533  0.03408  1.0000
  H   H6        1.0  0.96163  0.04031  0.10811  1.0000
  H   H7        1.0  0.00911  0.00936  0.09202  1.0000
  H   H8        1.0  0.95554  0.98499  0.08831  1.0000
  H   H9        1.0  0.91498  0.08185  0.03768  1.0000
  H   H10       1.0  0.89768  0.02694  0.04816  1.0000
  H   H11       1.0  0.93090  0.06109  0.95791  1.0000
  H   H12       1.0  0.83641  0.03738  0.98885  1.0000
  H   H13       1.0  0.85232  0.05121  0.93367  1.0000
  H   H14       1.0  0.85654  0.09151  0.97658  1.0000
  H   H15       1.0  0.91234  0.98654  0.93090  1.0000
  H   H16       1.0  0.88749  0.97172  0.98207  1.0000
  H   H17       1.0  0.00562  0.92418  0.03623  1.0000
  H   H18       1.0  0.98869  0.87244  0.01708  1.0000
  H   H19       1.0  0.04115  0.86913  0.96057  1.0000
  H   H20       1.0  0.07068  0.90187  0.99945  1.0000
  H   H21       1.0  0.05984  0.92474  0.91389  1.0000
