data_image0
_chemical_formula_structural       COCOC5NCONC5NCOC3OC2OC4OH23
_chemical_formula_sum              "C23 O7 N3 H23"
_cell_length_a       30
_cell_length_b       30
_cell_length_c       30
_cell_angle_alpha    90
_cell_angle_beta     90
_cell_angle_gamma    90

_space_group_name_H-M_alt    "P 1"
_space_group_IT_number       1

loop_
  _space_group_symop_operation_xyz
  'x, y, z'

loop_
  _atom_site_type_symbol
  _atom_site_label
  _atom_site_symmetry_multiplicity
  _atom_site_fract_x
  _atom_site_fract_y
  _atom_site_fract_z
  _atom_site_occupancy
  C   C1        1.0  0.27349  0.97264  0.99115  1.0000
  O   O1        1.0  0.23214  0.99011  0.00695  1.0000
  C   C2        1.0  0.19755  0.98351  0.97864  1.0000
  O   O2        1.0  0.19893  0.96483  0.94255  1.0000
  C   C3        1.0  0.15715  0.00303  0.99891  1.0000
  C   C4        1.0  0.11859  0.00290  0.97622  1.0000
  C   C5        1.0  0.07611  0.02162  0.99147  1.0000
  C   C6        1.0  0.03978  0.02251  0.96388  1.0000
  C   C7        1.0  0.00342  0.05739  0.97122  1.0000
  N   N1        1.0  0.01604  0.09193  0.00264  1.0000
  C   C8        1.0  0.01613  0.08154  0.04728  1.0000
  O   O3        1.0  0.00764  0.10953  0.07569  1.0000
  N   N2        1.0  0.02380  0.03723  0.05492  1.0000
  C   C9        1.0  0.99204  0.01117  0.08208  1.0000
  C   C10       1.0  0.95267  0.98865  0.05311  1.0000
  C   C11       1.0  0.96501  0.98511  0.00227  1.0000
  C   C12       1.0  0.00268  0.94681  0.00552  1.0000
  C   C13       1.0  0.03217  0.94188  0.96442  1.0000
  N   N3        1.0  0.02610  0.98249  0.93879  1.0000
  C   C14       1.0  0.98140  0.97858  0.92068  1.0000
  O   O4        1.0  0.97186  0.98440  0.88149  1.0000
  C   C15       1.0  0.94569  0.96962  0.95800  1.0000
  C   C16       1.0  0.90250  0.96958  0.94619  1.0000
  C   C17       1.0  0.86958  0.99249  0.97391  1.0000
  O   O5        1.0  0.82858  0.97187  0.97623  1.0000
  C   C18       1.0  0.83074  0.92921  0.99715  1.0000
  C   C19       1.0  0.87791  0.03409  0.99049  1.0000
  O   O6        1.0  0.84950  0.06199  0.01312  1.0000
  C   C20       1.0  0.80462  0.04875  0.02016  1.0000
  C   C21       1.0  0.92140  0.05620  0.98440  1.0000
  C   C22       1.0  0.96180  0.03579  0.98868  1.0000
  C   C23       1.0  0.06499  0.02115  0.04236  1.0000
  O   O7        1.0  0.08955  0.00173  0.06888  1.0000
  H   H1        1.0  0.28317  0.98891  0.95996  1.0000
  H   H2        1.0  0.27124  0.93649  0.98672  1.0000
  H   H3        1.0  0.29902  0.97962  0.01621  1.0000
  H   H4        1.0  0.16071  0.01690  0.03206  1.0000
  H   H5        1.0  0.11860  0.98966  0.94232  1.0000
  H   H6        1.0  0.99727  0.07424  0.93935  1.0000
  H   H7        1.0  0.00468  0.12319  0.99695  1.0000
  H   H8        1.0  0.97682  0.03289  0.10719  1.0000
  H   H9        1.0  0.01022  0.98476  0.09956  1.0000
  H   H10       1.0  0.94524  0.95568  0.06717  1.0000
  H   H11       1.0  0.92234  0.00792  0.05943  1.0000
  H   H12       1.0  0.02431  0.94991  0.03457  1.0000
  H   H13       1.0  0.98602  0.91459  0.01133  1.0000
  H   H14       1.0  0.02120  0.91324  0.94435  1.0000
  H   H15       1.0  0.06697  0.93514  0.97275  1.0000
  H   H16       1.0  0.89228  0.96319  0.91197  1.0000
  H   H17       1.0  0.84830  0.93106  0.02912  1.0000
  H   H18       1.0  0.79658  0.91819  0.00358  1.0000
  H   H19       1.0  0.84654  0.90464  0.97527  1.0000
  H   H20       1.0  0.80285  0.01906  0.04127  1.0000
  H   H21       1.0  0.78775  0.07579  0.03791  1.0000
  H   H22       1.0  0.78717  0.04391  0.98849  1.0000
  H   H23       1.0  0.91919  0.09068  0.97330  1.0000
