data_image0
_chemical_formula_structural       COCOC2N2COC10H16
_chemical_formula_sum              "C15 O3 N2 H16"
_cell_length_a       30
_cell_length_b       30
_cell_length_c       30
_cell_angle_alpha    90
_cell_angle_beta     90
_cell_angle_gamma    90

_space_group_name_H-M_alt    "P 1"
_space_group_IT_number       1

loop_
  _space_group_symop_operation_xyz
  'x, y, z'

loop_
  _atom_site_type_symbol
  _atom_site_label
  _atom_site_symmetry_multiplicity
  _atom_site_fract_x
  _atom_site_fract_y
  _atom_site_fract_z
  _atom_site_occupancy
  C   C1        1.0  0.87656  0.92751  0.01642  1.0000
  O   O1        1.0  0.91641  0.95311  0.02100  1.0000
  C   C2        1.0  0.92165  0.98523  0.98906  1.0000
  O   O2        1.0  0.89393  0.99348  0.96021  1.0000
  C   C3        1.0  0.96632  0.01021  0.99539  1.0000
  C   C4        1.0  0.00629  0.97796  0.98730  1.0000
  N   N1        1.0  0.99629  0.93972  0.96928  1.0000
  N   N2        1.0  0.02851  0.90897  0.96225  1.0000
  C   C5        1.0  0.07245  0.91300  0.97376  1.0000
  O   O3        1.0  0.09937  0.88270  0.96854  1.0000
  C   C6        1.0  0.08577  0.95640  0.99218  1.0000
  C   C7        1.0  0.13086  0.96390  0.00215  1.0000
  C   C8        1.0  0.14449  0.00533  0.01786  1.0000
  C   C9        1.0  0.11320  0.03912  0.02312  1.0000
  C   C10       1.0  0.06823  0.03141  0.01320  1.0000
  C   C11       1.0  0.05374  0.98968  0.99826  1.0000
  C   C12       1.0  0.96409  0.03255  0.04201  1.0000
  C   C13       1.0  0.95860  0.08270  0.03418  1.0000
  C   C14       1.0  0.94418  0.08740  0.98591  1.0000
  C   C15       1.0  0.96820  0.04953  0.96217  1.0000
  H   H1        1.0  0.84722  0.94877  0.02066  1.0000
  H   H2        1.0  0.87635  0.90219  0.04264  1.0000
  H   H3        1.0  0.87580  0.91063  0.98409  1.0000
  H   H4        1.0  0.01859  0.87933  0.94925  1.0000
  H   H5        1.0  0.15531  0.93754  0.99728  1.0000
  H   H6        1.0  0.17941  0.01132  0.02549  1.0000
  H   H7        1.0  0.12378  0.07179  0.03484  1.0000
  H   H8        1.0  0.04575  0.05926  0.01721  1.0000
  H   H9        1.0  0.93529  0.02111  0.06142  1.0000
  H   H10       1.0  0.99307  0.02564  0.06300  1.0000
  H   H11       1.0  0.99023  0.10007  0.03965  1.0000
  H   H12       1.0  0.93425  0.09741  0.05704  1.0000
  H   H13       1.0  0.95281  0.12002  0.97207  1.0000
  H   H14       1.0  0.90798  0.08328  0.98314  1.0000
  H   H15       1.0  0.95256  0.04216  0.93001  1.0000
  H   H16       1.0  0.00246  0.05959  0.95462  1.0000
