data_image0
_chemical_formula_structural       COCOCNCOCNC11OCOH20
_chemical_formula_sum              "C17 O5 N2 H20"
_cell_length_a       30
_cell_length_b       30
_cell_length_c       30
_cell_angle_alpha    90
_cell_angle_beta     90
_cell_angle_gamma    90

_space_group_name_H-M_alt    "P 1"
_space_group_IT_number       1

loop_
  _space_group_symop_operation_xyz
  'x, y, z'

loop_
  _atom_site_type_symbol
  _atom_site_label
  _atom_site_symmetry_multiplicity
  _atom_site_fract_x
  _atom_site_fract_y
  _atom_site_fract_z
  _atom_site_occupancy
  C   C1        1.0  0.17352  0.04159  0.02268  1.0000
  O   O1        1.0  0.14303  0.01238  0.00064  1.0000
  C   C2        1.0  0.16188  0.98715  0.96784  1.0000
  O   O2        1.0  0.20136  0.98851  0.95740  1.0000
  C   C3        1.0  0.12836  0.95610  0.94562  1.0000
  N   N1        1.0  0.08325  0.96184  0.96281  1.0000
  C   C4        1.0  0.05503  0.99174  0.94171  1.0000
  O   O3        1.0  0.06689  0.01558  0.91056  1.0000
  C   C5        1.0  0.00631  0.98731  0.95497  1.0000
  N   N2        1.0  0.00159  0.98213  0.00283  1.0000
  C   C6        1.0  0.97234  0.01150  0.02578  1.0000
  C   C7        1.0  0.99274  0.04165  0.05540  1.0000
  C   C8        1.0  0.96837  0.07500  0.07623  1.0000
  C   C9        1.0  0.92315  0.07886  0.06759  1.0000
  C   C10       1.0  0.90142  0.04879  0.03892  1.0000
  C   C11       1.0  0.85173  0.05479  0.03344  1.0000
  C   C12       1.0  0.92565  0.01331  0.01832  1.0000
  C   C13       1.0  0.89908  0.97746  0.99330  1.0000
  C   C14       1.0  0.89286  0.98778  0.94374  1.0000
  C   C15       1.0  0.91436  0.92923  0.00070  1.0000
  C   C16       1.0  0.03094  0.95483  0.02630  1.0000
  O   O4        1.0  0.02918  0.94666  0.06624  1.0000
  C   C17       1.0  0.07007  0.93600  0.99890  1.0000
  O   O5        1.0  0.08819  0.90119  0.01004  1.0000
  H   H1        1.0  0.19985  0.02248  0.03918  1.0000
  H   H2        1.0  0.15503  0.06009  0.04807  1.0000
  H   H3        1.0  0.18769  0.06547  0.99902  1.0000
  H   H4        1.0  0.13958  0.92187  0.95137  1.0000
  H   H5        1.0  0.12883  0.96295  0.90977  1.0000
  H   H6        1.0  0.98878  0.01722  0.94354  1.0000
  H   H7        1.0  0.99313  0.95767  0.93831  1.0000
  H   H8        1.0  0.02838  0.03992  0.06192  1.0000
  H   H9        1.0  0.98470  0.09809  0.09886  1.0000
  H   H10       1.0  0.90449  0.10529  0.08402  1.0000
  H   H11       1.0  0.83379  0.03013  0.05346  1.0000
  H   H12       1.0  0.84186  0.05189  0.99848  1.0000
  H   H13       1.0  0.84106  0.08797  0.04439  1.0000
  H   H14       1.0  0.86549  0.97735  0.00777  1.0000
  H   H15       1.0  0.92329  0.98285  0.92448  1.0000
  H   H16       1.0  0.86751  0.96575  0.92937  1.0000
  H   H17       1.0  0.88194  0.02218  0.93837  1.0000
  H   H18       1.0  0.92052  0.92263  0.03608  1.0000
  H   H19       1.0  0.94441  0.92074  0.98205  1.0000
  H   H20       1.0  0.88840  0.90607  0.98953  1.0000
