data_image0
_chemical_formula_structural       COC6ONC2NCOC11ClC2H21
_chemical_formula_sum              "C23 O3 N2 Cl1 H21"
_cell_length_a       30
_cell_length_b       30
_cell_length_c       30
_cell_angle_alpha    90
_cell_angle_beta     90
_cell_angle_gamma    90

_space_group_name_H-M_alt    "P 1"
_space_group_IT_number       1

loop_
  _space_group_symop_operation_xyz
  'x, y, z'

loop_
  _atom_site_type_symbol
  _atom_site_label
  _atom_site_symmetry_multiplicity
  _atom_site_fract_x
  _atom_site_fract_y
  _atom_site_fract_z
  _atom_site_occupancy
  C   C1        1.0  0.09032  0.98179  0.08819  1.0000
  O   O1        1.0  0.08170  0.01992  0.06105  1.0000
  C   C2        1.0  0.09106  0.01140  0.01673  1.0000
  C   C3        1.0  0.05848  0.00822  0.98615  1.0000
  C   C4        1.0  0.01075  0.01055  0.99956  1.0000
  C   C5        1.0  0.99241  0.05817  0.00113  1.0000
  C   C6        1.0  0.95631  0.04692  0.97701  1.0000
  C   C7        1.0  0.91692  0.07337  0.96511  1.0000
  O   O2        1.0  0.91554  0.11273  0.95425  1.0000
  N   N1        1.0  0.87916  0.04757  0.96339  1.0000
  C   C8        1.0  0.85781  0.03233  0.00409  1.0000
  C   C9        1.0  0.83002  0.06983  0.02471  1.0000
  N   N2        1.0  0.88748  0.01420  0.03746  1.0000
  C   C10       1.0  0.91078  0.97508  0.03693  1.0000
  O   O3        1.0  0.92926  0.96101  0.07058  1.0000
  C   C11       1.0  0.91339  0.94925  0.99537  1.0000
  C   C12       1.0  0.88620  0.91119  0.99314  1.0000
  C   C13       1.0  0.88694  0.88439  0.95538  1.0000
  C   C14       1.0  0.91500  0.89546  0.92027  1.0000
  C   C15       1.0  0.94241  0.93312  0.92318  1.0000
  C   C16       1.0  0.94306  0.96156  0.96085  1.0000
  C   C17       1.0  0.97602  0.00347  0.96107  1.0000
  C   C18       1.0  0.13862  0.01123  0.00402  1.0000
  C   C19       1.0  0.15606  0.97850  0.97552  1.0000
  C   C20       1.0  0.20127  0.97859  0.96417  1.0000
  C   C21       1.0  0.22933  0.01135  0.98137  1.0000
  Cl  Cl1       1.0  0.28495  0.01141  0.96742  1.0000
  C   C22       1.0  0.21264  0.04397  0.00987  1.0000
  C   C23       1.0  0.16744  0.04381  0.02120  1.0000
  H   H1        1.0  0.12604  0.97445  0.08969  1.0000
  H   H2        1.0  0.07890  0.98932  0.12199  1.0000
  H   H3        1.0  0.07186  0.95266  0.07617  1.0000
  H   H4        1.0  0.06629  0.00411  0.95108  1.0000
  H   H5        1.0  0.00404  0.99030  0.02927  1.0000
  H   H6        1.0  0.00206  0.08752  0.01999  1.0000
  H   H7        1.0  0.85678  0.06384  0.94415  1.0000
  H   H8        1.0  0.83516  0.00555  0.99386  1.0000
  H   H9        1.0  0.81166  0.05785  0.05391  1.0000
  H   H10       1.0  0.80583  0.08294  0.00072  1.0000
  H   H11       1.0  0.85113  0.09761  0.03554  1.0000
  H   H12       1.0  0.88869  0.02945  0.06754  1.0000
  H   H13       1.0  0.86477  0.90249  0.02106  1.0000
  H   H14       1.0  0.86597  0.85492  0.95346  1.0000
  H   H15       1.0  0.91594  0.87471  0.89056  1.0000
  H   H16       1.0  0.96420  0.94058  0.89507  1.0000
  H   H17       1.0  0.99135  0.00685  0.92780  1.0000
  H   H18       1.0  0.13467  0.95244  0.96220  1.0000
  H   H19       1.0  0.21430  0.95302  0.94208  1.0000
  H   H20       1.0  0.23443  0.06955  0.02338  1.0000
  H   H21       1.0  0.15463  0.06946  0.04344  1.0000
