data_image0
_chemical_formula_structural       COC7OC2NCNC4OC4ClC2H21
_chemical_formula_sum              "C21 O3 N2 Cl1 H21"
_cell_length_a       30
_cell_length_b       30
_cell_length_c       30
_cell_angle_alpha    90
_cell_angle_beta     90
_cell_angle_gamma    90

_space_group_name_H-M_alt    "P 1"
_space_group_IT_number       1

loop_
  _space_group_symop_operation_xyz
  'x, y, z'

loop_
  _atom_site_type_symbol
  _atom_site_label
  _atom_site_symmetry_multiplicity
  _atom_site_fract_x
  _atom_site_fract_y
  _atom_site_fract_z
  _atom_site_occupancy
  C   C1        1.0  0.84609  0.90841  0.01680  1.0000
  O   O1        1.0  0.86014  0.94519  0.99017  1.0000
  C   C2        1.0  0.85707  0.98554  0.01118  1.0000
  C   C3        1.0  0.81984  0.99822  0.03633  1.0000
  C   C4        1.0  0.81763  0.04060  0.05540  1.0000
  C   C5        1.0  0.85239  0.07049  0.04939  1.0000
  C   C6        1.0  0.88937  0.05805  0.02414  1.0000
  C   C7        1.0  0.89219  0.01571  0.00437  1.0000
  C   C8        1.0  0.93370  0.00467  0.97745  1.0000
  O   O2        1.0  0.92243  0.98853  0.93328  1.0000
  C   C9        1.0  0.96686  0.97083  0.99921  1.0000
  C   C10       1.0  0.96558  0.96623  0.04995  1.0000
  N   N1        1.0  0.01324  0.97739  0.98314  1.0000
  C   C11       1.0  0.03448  0.01808  0.99278  1.0000
  N   N2        1.0  0.01579  0.04660  0.02234  1.0000
  C   C12       1.0  0.03725  0.08515  0.03171  1.0000
  C   C13       1.0  0.07711  0.09767  0.01242  1.0000
  C   C14       1.0  0.09691  0.06830  0.98233  1.0000
  C   C15       1.0  0.07595  0.02762  0.97324  1.0000
  O   O3        1.0  0.09438  0.99707  0.94374  1.0000
  C   C16       1.0  0.13800  0.98563  0.95216  1.0000
  C   C17       1.0  0.16882  0.99075  0.91769  1.0000
  C   C18       1.0  0.21350  0.97990  0.92507  1.0000
  C   C19       1.0  0.22681  0.96334  0.96657  1.0000
  Cl  Cl1       1.0  0.28190  0.95020  0.97535  1.0000
  C   C20       1.0  0.19572  0.95718  0.00070  1.0000
  C   C21       1.0  0.15106  0.96819  0.99348  1.0000
  H   H1        1.0  0.85712  0.91156  0.05165  1.0000
  H   H2        1.0  0.86177  0.87861  0.00309  1.0000
  H   H3        1.0  0.80985  0.90426  0.01460  1.0000
  H   H4        1.0  0.79189  0.97573  0.04093  1.0000
  H   H5        1.0  0.78869  0.05062  0.07483  1.0000
  H   H6        1.0  0.85071  0.10338  0.06454  1.0000
  H   H7        1.0  0.91645  0.08190  0.01997  1.0000
  H   H8        1.0  0.95068  0.03615  0.97051  1.0000
  H   H9        1.0  0.89092  0.98075  0.93418  1.0000
  H   H10       1.0  0.95767  0.93792  0.98641  1.0000
  H   H11       1.0  0.96572  0.99790  0.06706  1.0000
  H   H12       1.0  0.93582  0.94879  0.05989  1.0000
  H   H13       1.0  0.99377  0.94668  0.06228  1.0000
  H   H14       1.0  0.01469  0.97252  0.94955  1.0000
  H   H15       1.0  0.02068  0.10630  0.05599  1.0000
  H   H16       1.0  0.09257  0.12927  0.02094  1.0000
  H   H17       1.0  0.12827  0.07699  0.96641  1.0000
  H   H18       1.0  0.15833  0.00345  0.88534  1.0000
  H   H19       1.0  0.23776  0.98459  0.89848  1.0000
  H   H20       1.0  0.20595  0.94395  0.03304  1.0000
  H   H21       1.0  0.12647  0.96314  0.01992  1.0000
