data_image0
_chemical_formula_structural       COC7NCOCSO2C6SCO2CH21
_chemical_formula_sum              "C18 O6 N1 S2 H21"
_cell_length_a       30
_cell_length_b       30
_cell_length_c       30
_cell_angle_alpha    90
_cell_angle_beta     90
_cell_angle_gamma    90

_space_group_name_H-M_alt    "P 1"
_space_group_IT_number       1

loop_
  _space_group_symop_operation_xyz
  'x, y, z'

loop_
  _atom_site_type_symbol
  _atom_site_label
  _atom_site_symmetry_multiplicity
  _atom_site_fract_x
  _atom_site_fract_y
  _atom_site_fract_z
  _atom_site_occupancy
  C   C1        1.0  0.79668  0.95121  0.08320  1.0000
  O   O1        1.0  0.82839  0.96233  0.04971  1.0000
  C   C2        1.0  0.81951  0.99901  0.02391  1.0000
  C   C3        1.0  0.78506  0.02939  0.03198  1.0000
  C   C4        1.0  0.77925  0.06640  0.00430  1.0000
  C   C5        1.0  0.80790  0.07349  0.96852  1.0000
  C   C6        1.0  0.84237  0.04348  0.96022  1.0000
  C   C7        1.0  0.84838  0.00589  0.98753  1.0000
  C   C8        1.0  0.88623  0.97429  0.97783  1.0000
  N   N1        1.0  0.92300  0.98138  0.00822  1.0000
  C   C9        1.0  0.96384  0.96209  0.00091  1.0000
  O   O2        1.0  0.97274  0.94073  0.96713  1.0000
  C   C10       1.0  0.99699  0.96805  0.03761  1.0000
  S   S1        1.0  0.04225  0.00140  0.01983  1.0000
  O   O3        1.0  0.02458  0.04472  0.00735  1.0000
  O   O4        1.0  0.07535  0.99828  0.05519  1.0000
  C   C11       1.0  0.06400  0.97427  0.97098  1.0000
  C   C12       1.0  0.10822  0.99513  0.95918  1.0000
  C   C13       1.0  0.11027  0.03152  0.92983  1.0000
  C   C14       1.0  0.15111  0.05113  0.91905  1.0000
  C   C15       1.0  0.19043  0.03496  0.93779  1.0000
  C   C16       1.0  0.18847  0.99924  0.96757  1.0000
  S   S2        1.0  0.23820  0.97877  0.99238  1.0000
  C   C17       1.0  0.24013  0.00724  0.04420  1.0000
  O   O5        1.0  0.23166  0.93165  0.00117  1.0000
  O   O6        1.0  0.27543  0.99394  0.96548  1.0000
  C   C18       1.0  0.14785  0.97888  0.97791  1.0000
  H   H1        1.0  0.79594  0.97660  0.10940  1.0000
  H   H2        1.0  0.76351  0.94591  0.06890  1.0000
  H   H3        1.0  0.80726  0.91983  0.09853  1.0000
  H   H4        1.0  0.76223  0.02546  0.05975  1.0000
  H   H5        1.0  0.75241  0.08985  0.01086  1.0000
  H   H6        1.0  0.80347  0.10242  0.94714  1.0000
  H   H7        1.0  0.86469  0.04958  0.93228  1.0000
  H   H8        1.0  0.89824  0.97834  0.94354  1.0000
  H   H9        1.0  0.87526  0.93956  0.98088  1.0000
  H   H10       1.0  0.91491  0.99301  0.03885  1.0000
  H   H11       1.0  0.98224  0.98427  0.06675  1.0000
  H   H12       1.0  0.00975  0.93545  0.04780  1.0000
  H   H13       1.0  0.06791  0.93878  0.97835  1.0000
  H   H14       1.0  0.04042  0.97855  0.94357  1.0000
  H   H15       1.0  0.07991  0.04500  0.91516  1.0000
  H   H16       1.0  0.15218  0.07918  0.89609  1.0000
  H   H17       1.0  0.22210  0.05036  0.92915  1.0000
  H   H18       1.0  0.21053  0.99874  0.06361  1.0000
  H   H19       1.0  0.27006  0.99640  0.06188  1.0000
  H   H20       1.0  0.24173  0.04306  0.03801  1.0000
  H   H21       1.0  0.14699  0.95078  0.00090  1.0000
