data_image0
_chemical_formula_structural       COC8NCONC2NCOCN2CONC2H22
_chemical_formula_sum              "C17 O4 N6 H22"
_cell_length_a       30
_cell_length_b       30
_cell_length_c       30
_cell_angle_alpha    90
_cell_angle_beta     90
_cell_angle_gamma    90

_space_group_name_H-M_alt    "P 1"
_space_group_IT_number       1

loop_
  _space_group_symop_operation_xyz
  'x, y, z'

loop_
  _atom_site_type_symbol
  _atom_site_label
  _atom_site_symmetry_multiplicity
  _atom_site_fract_x
  _atom_site_fract_y
  _atom_site_fract_z
  _atom_site_occupancy
  C   C1        1.0  0.84206  0.07922  0.92507  1.0000
  O   O1        1.0  0.86482  0.04223  0.94397  1.0000
  C   C2        1.0  0.84006  0.01251  0.96851  1.0000
  C   C3        1.0  0.79475  0.01789  0.97845  1.0000
  C   C4        1.0  0.77240  0.98635  0.00432  1.0000
  C   C5        1.0  0.79511  0.94940  0.02057  1.0000
  C   C6        1.0  0.84023  0.94390  0.01079  1.0000
  C   C7        1.0  0.86369  0.97489  0.98441  1.0000
  C   C8        1.0  0.91352  0.96791  0.97481  1.0000
  C   C9        1.0  0.94358  0.99349  0.00683  1.0000
  N   N1        1.0  0.99073  0.98445  0.00086  1.0000
  C   C10       1.0  0.02031  0.99838  0.03282  1.0000
  O   O2        1.0  0.00989  0.01558  0.06823  1.0000
  N   N2        1.0  0.06340  0.99034  0.01969  1.0000
  C   C11       1.0  0.09946  0.99844  0.05033  1.0000
  C   C12       1.0  0.10409  0.95998  0.08345  1.0000
  N   N3        1.0  0.13891  0.00432  0.02388  1.0000
  C   C13       1.0  0.17745  0.02148  0.04155  1.0000
  O   O3        1.0  0.18580  0.02766  0.08091  1.0000
  C   C14       1.0  0.21170  0.03427  0.00709  1.0000
  N   N4        1.0  0.20666  0.03003  0.96413  1.0000
  N   N5        1.0  0.24625  0.04624  0.94770  1.0000
  C   C15       1.0  0.27403  0.06005  0.98223  1.0000
  O   O4        1.0  0.31110  0.07617  0.97892  1.0000
  N   N6        1.0  0.25098  0.05185  0.02036  1.0000
  C   C16       1.0  0.92837  0.92257  0.95704  1.0000
  C   C17       1.0  0.92709  0.96175  0.92613  1.0000
  H   H1        1.0  0.81587  0.06823  0.90214  1.0000
  H   H2        1.0  0.86629  0.09850  0.90578  1.0000
  H   H3        1.0  0.82866  0.10111  0.95102  1.0000
  H   H4        1.0  0.77589  0.04643  0.96676  1.0000
  H   H5        1.0  0.73726  0.99079  0.01196  1.0000
  H   H6        1.0  0.77788  0.92490  0.04096  1.0000
  H   H7        1.0  0.85762  0.91495  0.02404  1.0000
  H   H8        1.0  0.93466  0.98517  0.04129  1.0000
  H   H9        1.0  0.93888  0.02947  0.00249  1.0000
  H   H10       1.0  0.00228  0.98806  0.96954  1.0000
  H   H11       1.0  0.06667  0.96316  0.00022  1.0000
  H   H12       1.0  0.09318  0.02950  0.06857  1.0000
  H   H13       1.0  0.11107  0.92855  0.06617  1.0000
  H   H14       1.0  0.13123  0.96578  0.10711  1.0000
  H   H15       1.0  0.07340  0.95538  0.10269  1.0000
  H   H16       1.0  0.13487  0.00842  0.99063  1.0000
  H   H17       1.0  0.25338  0.04781  0.91475  1.0000
  H   H18       1.0  0.26100  0.05806  0.05179  1.0000
  H   H19       1.0  0.90361  0.89670  0.95199  1.0000
  H   H20       1.0  0.96056  0.90956  0.96700  1.0000
  H   H21       1.0  0.95819  0.97574  0.91444  1.0000
  H   H22       1.0  0.90113  0.96237  0.90090  1.0000
