data_image0
_chemical_formula_structural       COC6NCOCSCN2C2NC2NCONC8OC6H36
_chemical_formula_sum              "C29 O4 N6 S1 H36"
_cell_length_a       30
_cell_length_b       30
_cell_length_c       30
_cell_angle_alpha    90
_cell_angle_beta     90
_cell_angle_gamma    90

_space_group_name_H-M_alt    "P 1"
_space_group_IT_number       1

loop_
  _space_group_symop_operation_xyz
  'x, y, z'

loop_
  _atom_site_type_symbol
  _atom_site_label
  _atom_site_symmetry_multiplicity
  _atom_site_fract_x
  _atom_site_fract_y
  _atom_site_fract_z
  _atom_site_occupancy
  C   C1        1.0  0.69106  0.92131  0.06861  1.0000
  O   O1        1.0  0.73164  0.94089  0.05319  1.0000
  C   C2        1.0  0.74646  0.97816  0.07561  1.0000
  C   C3        1.0  0.72624  0.99646  0.11335  1.0000
  C   C4        1.0  0.74417  0.03457  0.13320  1.0000
  C   C5        1.0  0.78239  0.05426  0.11557  1.0000
  C   C6        1.0  0.80295  0.03616  0.07788  1.0000
  C   C7        1.0  0.78515  0.99825  0.05762  1.0000
  N   N1        1.0  0.80361  0.97783  0.01938  1.0000
  C   C8        1.0  0.83842  0.99260  0.99287  1.0000
  O   O2        1.0  0.85858  0.02781  0.99778  1.0000
  C   C9        1.0  0.84712  0.96116  0.95392  1.0000
  S   S1        1.0  0.90557  0.95215  0.94230  1.0000
  C   C10       1.0  0.92330  0.00575  0.92595  1.0000
  N   N2        1.0  0.96016  0.02460  0.93908  1.0000
  N   N3        1.0  0.98641  0.99938  0.96821  1.0000
  C   C11       1.0  0.02764  0.99559  0.95484  1.0000
  C   C12       1.0  0.04743  0.01648  0.91366  1.0000
  N   N4        1.0  0.05862  0.06343  0.92241  1.0000
  C   C13       1.0  0.07852  0.07078  0.96673  1.0000
  C   C14       1.0  0.11333  0.03602  0.98075  1.0000
  N   N5        1.0  0.09604  0.99458  0.00052  1.0000
  C   C15       1.0  0.12242  0.97222  0.03097  1.0000
  O   O3        1.0  0.10859  0.95781  0.06664  1.0000
  N   N6        1.0  0.16697  0.97078  0.01914  1.0000
  C   C16       1.0  0.19977  0.94926  0.04807  1.0000
  C   C17       1.0  0.21343  0.98032  0.08652  1.0000
  C   C18       1.0  0.24186  0.02055  0.07349  1.0000
  C   C19       1.0  0.28472  0.01092  0.04759  1.0000
  C   C20       1.0  0.30750  0.96670  0.05838  1.0000
  C   C21       1.0  0.28205  0.92414  0.04559  1.0000
  C   C22       1.0  0.23868  0.93122  0.01989  1.0000
  C   C23       1.0  0.06036  0.97055  0.98356  1.0000
  O   O4        1.0  0.05435  0.93031  0.98744  1.0000
  C   C24       1.0  0.89578  0.02943  0.89245  1.0000
  C   C25       1.0  0.88545  0.00929  0.85158  1.0000
  C   C26       1.0  0.86035  0.03247  0.82016  1.0000
  C   C27       1.0  0.84550  0.07553  0.82947  1.0000
  C   C28       1.0  0.85620  0.09581  0.86995  1.0000
  C   C29       1.0  0.88160  0.07290  0.90142  1.0000
  H   H1        1.0  0.68310  0.89348  0.04649  1.0000
  H   H2        1.0  0.66337  0.94510  0.06670  1.0000
  H   H3        1.0  0.69487  0.90782  0.10243  1.0000
  H   H4        1.0  0.69656  0.98200  0.12818  1.0000
  H   H5        1.0  0.72833  0.04887  0.16252  1.0000
  H   H6        1.0  0.79638  0.08384  0.13118  1.0000
  H   H7        1.0  0.83283  0.05222  0.06529  1.0000
  H   H8        1.0  0.78718  0.94957  0.01051  1.0000
  H   H9        1.0  0.83335  0.92814  0.96150  1.0000
  H   H10       1.0  0.82924  0.97361  0.92465  1.0000
  H   H11       1.0  0.07714  0.99804  0.90312  1.0000
  H   H12       1.0  0.02388  0.01442  0.88579  1.0000
  H   H13       1.0  0.02922  0.08090  0.92148  1.0000
  H   H14       1.0  0.09464  0.10350  0.96550  1.0000
  H   H15       1.0  0.05239  0.07316  0.99224  1.0000
  H   H16       1.0  0.13568  0.05166  0.00529  1.0000
  H   H17       1.0  0.13423  0.02659  0.95211  1.0000
  H   H18       1.0  0.17187  0.96753  0.98601  1.0000
  H   H19       1.0  0.18327  0.92038  0.06333  1.0000
  H   H20       1.0  0.18347  0.99293  0.10342  1.0000
  H   H21       1.0  0.23126  0.96101  0.11198  1.0000
  H   H22       1.0  0.22159  0.04412  0.05418  1.0000
  H   H23       1.0  0.25091  0.03829  0.10431  1.0000
  H   H24       1.0  0.27817  0.01313  0.01171  1.0000
  H   H25       1.0  0.30832  0.03813  0.05451  1.0000
  H   H26       1.0  0.31571  0.96553  0.09397  1.0000
  H   H27       1.0  0.33970  0.96620  0.04095  1.0000
  H   H28       1.0  0.30432  0.90330  0.02524  1.0000
  H   H29       1.0  0.27540  0.90454  0.07580  1.0000
  H   H30       1.0  0.22811  0.89909  0.00574  1.0000
  H   H31       1.0  0.24489  0.95248  0.99076  1.0000
  H   H32       1.0  0.89773  0.97617  0.84377  1.0000
  H   H33       1.0  0.85234  0.01697  0.78837  1.0000
  H   H34       1.0  0.82588  0.09350  0.80490  1.0000
  H   H35       1.0  0.84462  0.12938  0.87710  1.0000
  H   H36       1.0  0.88959  0.08844  0.93321  1.0000
