data_image0
_chemical_formula_structural       COC11NCONC3NC3H29
_chemical_formula_sum              "C19 O2 N3 H29"
_cell_length_a       30
_cell_length_b       30
_cell_length_c       30
_cell_angle_alpha    90
_cell_angle_beta     90
_cell_angle_gamma    90

_space_group_name_H-M_alt    "P 1"
_space_group_IT_number       1

loop_
  _space_group_symop_operation_xyz
  'x, y, z'

loop_
  _atom_site_type_symbol
  _atom_site_label
  _atom_site_symmetry_multiplicity
  _atom_site_fract_x
  _atom_site_fract_y
  _atom_site_fract_z
  _atom_site_occupancy
  C   C1        1.0  0.72593  0.03761  0.00498  1.0000
  O   O1        1.0  0.75955  0.04174  0.03812  1.0000
  C   C2        1.0  0.80087  0.02559  0.02769  1.0000
  C   C3        1.0  0.83297  0.03144  0.06066  1.0000
  C   C4        1.0  0.87668  0.01672  0.05421  1.0000
  C   C5        1.0  0.88964  0.99610  0.01422  1.0000
  C   C6        1.0  0.85671  0.98870  0.98153  1.0000
  C   C7        1.0  0.81285  0.00418  0.98827  1.0000
  C   C8        1.0  0.86715  0.96541  0.93819  1.0000
  C   C9        1.0  0.90893  0.93679  0.94118  1.0000
  C   C10       1.0  0.94713  0.96432  0.95991  1.0000
  C   C11       1.0  0.93746  0.97970  0.00808  1.0000
  C   C12       1.0  0.97289  0.01442  0.02202  1.0000
  N   N1        1.0  0.01797  0.99654  0.02064  1.0000
  C   C13       1.0  0.05361  0.02517  0.02335  1.0000
  O   O2        1.0  0.05068  0.06578  0.02436  1.0000
  N   N2        1.0  0.09296  0.00181  0.02470  1.0000
  C   C14       1.0  0.13575  0.02511  0.02425  1.0000
  C   C15       1.0  0.17285  0.99537  0.04275  1.0000
  C   C16       1.0  0.18698  0.95928  0.00958  1.0000
  N   N3        1.0  0.19824  0.97612  0.96508  1.0000
  C   C17       1.0  0.24153  0.99847  0.96416  1.0000
  C   C18       1.0  0.16252  0.00414  0.94680  1.0000
  C   C19       1.0  0.14783  0.04205  0.97757  1.0000
  H   H1        1.0  0.69541  0.05264  0.01814  1.0000
  H   H2        1.0  0.73503  0.05573  0.97463  1.0000
  H   H3        1.0  0.71881  0.00254  0.99779  1.0000
  H   H4        1.0  0.82393  0.04762  0.09181  1.0000
  H   H5        1.0  0.90021  0.02154  0.08134  1.0000
  H   H6        1.0  0.78856  0.99868  0.96201  1.0000
  H   H7        1.0  0.87133  0.99080  0.91221  1.0000
  H   H8        1.0  0.83913  0.94407  0.92840  1.0000
  H   H9        1.0  0.91760  0.92423  0.90799  1.0000
  H   H10       1.0  0.90295  0.90769  0.96251  1.0000
  H   H11       1.0  0.95277  0.99327  0.93823  1.0000
  H   H12       1.0  0.97777  0.94441  0.95910  1.0000
  H   H13       1.0  0.94090  0.95031  0.02972  1.0000
  H   H14       1.0  0.96785  0.02594  0.05628  1.0000
  H   H15       1.0  0.97112  0.04395  0.00050  1.0000
  H   H16       1.0  0.02302  0.96783  0.03746  1.0000
  H   H17       1.0  0.09159  0.97230  0.00856  1.0000
  H   H18       1.0  0.13210  0.05402  0.04636  1.0000
  H   H19       1.0  0.20178  0.01614  0.05106  1.0000
  H   H20       1.0  0.16207  0.97958  0.07391  1.0000
  H   H21       1.0  0.15987  0.93498  0.00606  1.0000
  H   H22       1.0  0.21504  0.94030  0.02337  1.0000
  H   H23       1.0  0.25010  0.00823  0.93003  1.0000
  H   H24       1.0  0.24280  0.02830  0.98513  1.0000
  H   H25       1.0  0.26783  0.97569  0.97527  1.0000
  H   H26       1.0  0.17259  0.01783  0.91442  1.0000
  H   H27       1.0  0.13374  0.98273  0.93960  1.0000
  H   H28       1.0  0.17483  0.06655  0.98041  1.0000
  H   H29       1.0  0.11959  0.05957  0.96238  1.0000
