data_image0
_chemical_formula_structural       COC5NC2NC2BrC3ClH12
_chemical_formula_sum              "C13 O1 N2 Br1 Cl1 H12"
_cell_length_a       30
_cell_length_b       30
_cell_length_c       30
_cell_angle_alpha    90
_cell_angle_beta     90
_cell_angle_gamma    90

_space_group_name_H-M_alt    "P 1"
_space_group_IT_number       1

loop_
  _space_group_symop_operation_xyz
  'x, y, z'

loop_
  _atom_site_type_symbol
  _atom_site_label
  _atom_site_symmetry_multiplicity
  _atom_site_fract_x
  _atom_site_fract_y
  _atom_site_fract_z
  _atom_site_occupancy
  C   C1        1.0  0.15666  0.03772  0.97680  1.0000
  O   O1        1.0  0.13926  0.01116  0.01195  1.0000
  C   C2        1.0  0.09533  0.99889  0.00959  1.0000
  C   C3        1.0  0.06669  0.00982  0.97451  1.0000
  C   C4        1.0  0.02217  0.99577  0.97493  1.0000
  C   C5        1.0  0.00514  0.97068  0.01059  1.0000
  C   C6        1.0  0.95691  0.95465  0.01128  1.0000
  N   N1        1.0  0.95236  0.91712  0.98027  1.0000
  C   C7        1.0  0.92288  0.99145  0.00374  1.0000
  C   C8        1.0  0.88716  0.98709  0.97431  1.0000
  N   N2        1.0  0.85588  0.01892  0.96696  1.0000
  C   C9        1.0  0.85971  0.05700  0.99074  1.0000
  C   C10       1.0  0.89327  0.06454  0.02146  1.0000
  Br  Br1       1.0  0.89606  0.11846  0.05357  1.0000
  C   C11       1.0  0.92501  0.03138  0.02819  1.0000
  C   C12       1.0  0.03403  0.95946  0.04559  1.0000
  C   C13       1.0  0.07853  0.97348  0.04509  1.0000
  Cl  Cl1       1.0  0.11187  0.95836  0.08967  1.0000
  H   H1        1.0  0.13921  0.06970  0.97457  1.0000
  H   H2        1.0  0.15557  0.01981  0.94502  1.0000
  H   H3        1.0  0.19165  0.04470  0.98439  1.0000
  H   H4        1.0  0.07786  0.02929  0.94613  1.0000
  H   H5        1.0  0.00073  0.00488  0.94708  1.0000
  H   H6        1.0  0.94942  0.94143  0.04459  1.0000
  H   H7        1.0  0.96311  0.92684  0.94954  1.0000
  H   H8        1.0  0.97383  0.89259  0.98991  1.0000
  H   H9        1.0  0.88208  0.95682  0.95501  1.0000
  H   H10       1.0  0.83411  0.08172  0.98413  1.0000
  H   H11       1.0  0.95150  0.03656  0.05241  1.0000
  H   H12       1.0  0.02198  0.93969  0.07351  1.0000
