data_image0
_chemical_formula_structural       COC4NC3N2COC2NC2NOC8OC2H23
_chemical_formula_sum              "C23 O4 N5 H23"
_cell_length_a       30
_cell_length_b       30
_cell_length_c       30
_cell_angle_alpha    90
_cell_angle_beta     90
_cell_angle_gamma    90

_space_group_name_H-M_alt    "P 1"
_space_group_IT_number       1

loop_
  _space_group_symop_operation_xyz
  'x, y, z'

loop_
  _atom_site_type_symbol
  _atom_site_label
  _atom_site_symmetry_multiplicity
  _atom_site_fract_x
  _atom_site_fract_y
  _atom_site_fract_z
  _atom_site_occupancy
  C   C1        1.0  0.29269  0.96686  0.08205  1.0000
  O   O1        1.0  0.29032  0.96964  0.03480  1.0000
  C   C2        1.0  0.24991  0.98042  0.01679  1.0000
  C   C3        1.0  0.21087  0.98912  0.04022  1.0000
  C   C4        1.0  0.17151  0.99987  0.01731  1.0000
  C   C5        1.0  0.17013  0.00215  0.97057  1.0000
  N   N1        1.0  0.12987  0.01320  0.94802  1.0000
  C   C6        1.0  0.08943  0.02446  0.97160  1.0000
  C   C7        1.0  0.05854  0.04371  0.93649  1.0000
  C   C8        1.0  0.01122  0.03108  0.94697  1.0000
  N   N2        1.0  0.98199  0.06186  0.95463  1.0000
  N   N3        1.0  0.94009  0.04800  0.96706  1.0000
  C   C9        1.0  0.93179  0.01400  0.99777  1.0000
  O   O2        1.0  0.96090  0.98992  0.01362  1.0000
  C   C10       1.0  0.88477  0.00967  0.01057  1.0000
  C   C11       1.0  0.84822  0.02817  0.98912  1.0000
  N   N4        1.0  0.81031  0.01576  0.01147  1.0000
  C   C12       1.0  0.76543  0.02853  0.99820  1.0000
  C   C13       1.0  0.74322  0.99246  0.97043  1.0000
  N   N5        1.0  0.69736  0.00688  0.95775  1.0000
  O   O3        1.0  0.69328  0.01144  0.91701  1.0000
  C   C14       1.0  0.82093  0.98940  0.04751  1.0000
  C   C15       1.0  0.79381  0.96910  0.07987  1.0000
  C   C16       1.0  0.81434  0.94343  0.11286  1.0000
  C   C17       1.0  0.86036  0.93810  0.11365  1.0000
  C   C18       1.0  0.88706  0.95848  0.08134  1.0000
  C   C19       1.0  0.86733  0.98467  0.04754  1.0000
  C   C20       1.0  0.07428  0.02278  0.89325  1.0000
  C   C21       1.0  0.12244  0.01126  0.90199  1.0000
  O   O4        1.0  0.14805  0.00102  0.87204  1.0000
  C   C22       1.0  0.20972  0.99330  0.94760  1.0000
  C   C23       1.0  0.24905  0.98259  0.97043  1.0000
  H   H1        1.0  0.27071  0.94066  0.09481  1.0000
  H   H2        1.0  0.32691  0.95794  0.09099  1.0000
  H   H3        1.0  0.28521  0.99906  0.09752  1.0000
  H   H4        1.0  0.20964  0.98782  0.07634  1.0000
  H   H5        1.0  0.14202  0.00597  0.03739  1.0000
  H   H6        1.0  0.09598  0.04949  0.99737  1.0000
  H   H7        1.0  0.07610  0.99421  0.98720  1.0000
  H   H8        1.0  0.06202  0.08007  0.93497  1.0000
  H   H9        1.0  0.00334  0.99510  0.94756  1.0000
  H   H10       1.0  0.91686  0.07250  0.96522  1.0000
  H   H11       1.0  0.84593  0.04858  0.95945  1.0000
  H   H12       1.0  0.74650  0.03594  0.02857  1.0000
  H   H13       1.0  0.76798  0.05985  0.97948  1.0000
  H   H14       1.0  0.76245  0.98517  0.94023  1.0000
  H   H15       1.0  0.73942  0.96139  0.98919  1.0000
  H   H16       1.0  0.75784  0.97295  0.07976  1.0000
  H   H17       1.0  0.79404  0.92741  0.13827  1.0000
  H   H18       1.0  0.87583  0.91800  0.13953  1.0000
  H   H19       1.0  0.92303  0.95405  0.08238  1.0000
  H   H20       1.0  0.07193  0.04645  0.86561  1.0000
  H   H21       1.0  0.05620  0.99228  0.88460  1.0000
  H   H22       1.0  0.21157  0.99470  0.91150  1.0000
  H   H23       1.0  0.27927  0.97593  0.95154  1.0000
