data_image0
_chemical_formula_structural       COC6NC7FH20
_chemical_formula_sum              "C14 O1 N1 F1 H20"
_cell_length_a       30
_cell_length_b       30
_cell_length_c       30
_cell_angle_alpha    90
_cell_angle_beta     90
_cell_angle_gamma    90

_space_group_name_H-M_alt    "P 1"
_space_group_IT_number       1

loop_
  _space_group_symop_operation_xyz
  'x, y, z'

loop_
  _atom_site_type_symbol
  _atom_site_label
  _atom_site_symmetry_multiplicity
  _atom_site_fract_x
  _atom_site_fract_y
  _atom_site_fract_z
  _atom_site_occupancy
  C   C1        1.0  0.17751  0.03793  0.00743  1.0000
  O   O1        1.0  0.15638  0.99570  0.01118  1.0000
  C   C2        1.0  0.11104  0.99467  0.00666  1.0000
  C   C3        1.0  0.08359  0.03135  0.99950  1.0000
  C   C4        1.0  0.03727  0.02581  0.99545  1.0000
  C   C5        1.0  0.01668  0.98365  0.99805  1.0000
  C   C6        1.0  0.96513  0.97854  0.99425  1.0000
  C   C7        1.0  0.95187  0.92852  0.98470  1.0000
  N   N1        1.0  0.90442  0.92017  0.97622  1.0000
  C   C8        1.0  0.94633  0.00763  0.95512  1.0000
  C   C9        1.0  0.90622  0.03597  0.96859  1.0000
  C   C10       1.0  0.91723  0.06651  0.00763  1.0000
  C   C11       1.0  0.93905  0.04250  0.04689  1.0000
  C   C12       1.0  0.94431  0.99231  0.03993  1.0000
  C   C13       1.0  0.04505  0.94720  0.00582  1.0000
  C   C14       1.0  0.09114  0.95282  0.00984  1.0000
  F   F1        1.0  0.11629  0.91652  0.01709  1.0000
  H   H1        1.0  0.17198  0.05256  0.97445  1.0000
  H   H2        1.0  0.16651  0.06054  0.03390  1.0000
  H   H3        1.0  0.21341  0.03283  0.01142  1.0000
  H   H4        1.0  0.09685  0.06491  0.99698  1.0000
  H   H5        1.0  0.01751  0.05579  0.99032  1.0000
  H   H6        1.0  0.97033  0.91656  0.95548  1.0000
  H   H7        1.0  0.96142  0.90737  0.01293  1.0000
  H   H8        1.0  0.88639  0.92535  0.00452  1.0000
  H   H9        1.0  0.90015  0.88734  0.96845  1.0000
  H   H10       1.0  0.93677  0.98658  0.92676  1.0000
  H   H11       1.0  0.97154  0.02995  0.94102  1.0000
  H   H12       1.0  0.89540  0.05613  0.94010  1.0000
  H   H13       1.0  0.87800  0.01444  0.97727  1.0000
  H   H14       1.0  0.93953  0.09314  0.99619  1.0000
  H   H15       1.0  0.88670  0.08317  0.01885  1.0000
  H   H16       1.0  0.91901  0.04814  0.07697  1.0000
  H   H17       1.0  0.97143  0.05775  0.05410  1.0000
  H   H18       1.0  0.91092  0.97789  0.04347  1.0000
  H   H19       1.0  0.96380  0.97836  0.06760  1.0000
  H   H20       1.0  0.03282  0.91336  0.00919  1.0000
