data_image0
_chemical_formula_structural       COC3ClC2NC9OCH18
_chemical_formula_sum              "C16 O2 Cl1 N1 H18"
_cell_length_a       30
_cell_length_b       30
_cell_length_c       30
_cell_angle_alpha    90
_cell_angle_beta     90
_cell_angle_gamma    90

_space_group_name_H-M_alt    "P 1"
_space_group_IT_number       1

loop_
  _space_group_symop_operation_xyz
  'x, y, z'

loop_
  _atom_site_type_symbol
  _atom_site_label
  _atom_site_symmetry_multiplicity
  _atom_site_fract_x
  _atom_site_fract_y
  _atom_site_fract_z
  _atom_site_occupancy
  C   C1        1.0  0.17802  0.99549  0.97030  1.0000
  O   O1        1.0  0.14780  0.99130  0.00651  1.0000
  C   C2        1.0  0.10419  0.00319  0.99943  1.0000
  C   C3        1.0  0.08720  0.01811  0.95875  1.0000
  C   C4        1.0  0.04209  0.02966  0.95433  1.0000
  Cl  Cl1       1.0  0.02545  0.04612  0.90156  1.0000
  C   C5        1.0  0.01288  0.02697  0.99082  1.0000
  C   C6        1.0  0.96313  0.03839  0.99052  1.0000
  N   N1        1.0  0.95087  0.07605  0.96204  1.0000
  C   C7        1.0  0.93186  0.99883  0.98268  1.0000
  C   C8        1.0  0.94315  0.96496  0.95212  1.0000
  C   C9        1.0  0.91495  0.92875  0.94441  1.0000
  C   C10       1.0  0.87457  0.92567  0.96680  1.0000
  C   C11       1.0  0.86223  0.95897  0.99668  1.0000
  C   C12       1.0  0.89014  0.99578  0.00471  1.0000
  C   C13       1.0  0.87442  0.03080  0.03709  1.0000
  C   C14       1.0  0.03056  0.01112  0.03161  1.0000
  C   C15       1.0  0.07550  0.99935  0.03622  1.0000
  O   O2        1.0  0.09441  0.98409  0.07497  1.0000
  C   C16       1.0  0.06587  0.97631  0.11195  1.0000
  H   H1        1.0  0.21102  0.98533  0.98207  1.0000
  H   H2        1.0  0.16875  0.97333  0.94283  1.0000
  H   H3        1.0  0.18045  0.03014  0.95908  1.0000
  H   H4        1.0  0.10848  0.02085  0.92963  1.0000
  H   H5        1.0  0.95668  0.05068  0.02435  1.0000
  H   H6        1.0  0.97300  0.10127  0.96697  1.0000
  H   H7        1.0  0.95476  0.06646  0.92964  1.0000
  H   H8        1.0  0.97429  0.96609  0.93369  1.0000
  H   H9        1.0  0.92460  0.90304  0.92077  1.0000
  H   H10       1.0  0.85255  0.89754  0.96083  1.0000
  H   H11       1.0  0.83028  0.95618  0.01364  1.0000
  H   H12       1.0  0.87517  0.06387  0.02173  1.0000
  H   H13       1.0  0.83999  0.02477  0.04766  1.0000
  H   H14       1.0  0.89529  0.03058  0.06701  1.0000
  H   H15       1.0  0.00803  0.00817  0.05984  1.0000
  H   H16       1.0  0.04015  0.95169  0.10387  1.0000
  H   H17       1.0  0.05108  0.00747  0.12388  1.0000
  H   H18       1.0  0.08616  0.96264  0.13900  1.0000
