data_image0
_chemical_formula_structural       COC7NC2N2C4NC4H16
_chemical_formula_sum              "C18 O1 N4 H16"
_cell_length_a       30
_cell_length_b       30
_cell_length_c       30
_cell_angle_alpha    90
_cell_angle_beta     90
_cell_angle_gamma    90

_space_group_name_H-M_alt    "P 1"
_space_group_IT_number       1

loop_
  _space_group_symop_operation_xyz
  'x, y, z'

loop_
  _atom_site_type_symbol
  _atom_site_label
  _atom_site_symmetry_multiplicity
  _atom_site_fract_x
  _atom_site_fract_y
  _atom_site_fract_z
  _atom_site_occupancy
  C   C1        1.0  0.79587  0.94641  0.01403  1.0000
  O   O1        1.0  0.84091  0.94990  0.02841  1.0000
  C   C2        1.0  0.86158  0.99032  0.02355  1.0000
  C   C3        1.0  0.84177  0.02825  0.00503  1.0000
  C   C4        1.0  0.86566  0.06818  0.00162  1.0000
  C   C5        1.0  0.90943  0.07075  0.01691  1.0000
  C   C6        1.0  0.92963  0.03326  0.03538  1.0000
  C   C7        1.0  0.90600  0.99306  0.03804  1.0000
  C   C8        1.0  0.92717  0.95365  0.05886  1.0000
  N   N1        1.0  0.96623  0.93633  0.05127  1.0000
  C   C9        1.0  0.99149  0.95249  0.01682  1.0000
  C   C10       1.0  0.03402  0.96569  0.02072  1.0000
  N   N2        1.0  0.05842  0.96666  0.05977  1.0000
  N   N3        1.0  0.09713  0.98161  0.05226  1.0000
  C   C11       1.0  0.10080  0.99162  0.00757  1.0000
  C   C12       1.0  0.14255  0.00910  0.98916  1.0000
  C   C13       1.0  0.18301  0.98888  0.00024  1.0000
  C   C14       1.0  0.22201  0.00635  0.98277  1.0000
  N   N4        1.0  0.22338  0.04219  0.95563  1.0000
  C   C15       1.0  0.18404  0.06165  0.94585  1.0000
  C   C16       1.0  0.14331  0.04664  0.96163  1.0000
  C   C17       1.0  0.06288  0.98216  0.98594  1.0000
  C   C18       1.0  0.05062  0.98493  0.93811  1.0000
  H   H1        1.0  0.77425  0.96896  0.03290  1.0000
  H   H2        1.0  0.79305  0.95232  0.97812  1.0000
  H   H3        1.0  0.78472  0.91230  0.02055  1.0000
  H   H4        1.0  0.80766  0.02802  0.99296  1.0000
  H   H5        1.0  0.84982  0.09748  0.98729  1.0000
  H   H6        1.0  0.92765  0.10202  0.01481  1.0000
  H   H7        1.0  0.96338  0.03571  0.04838  1.0000
  H   H8        1.0  0.90670  0.93697  0.08452  1.0000
  H   H9        1.0  0.97546  0.95300  0.98430  1.0000
  H   H10       1.0  0.18430  0.95999  0.02200  1.0000
  H   H11       1.0  0.25414  0.99152  0.99045  1.0000
  H   H12       1.0  0.18616  0.09072  0.92437  1.0000
  H   H13       1.0  0.11305  0.06435  0.95285  1.0000
  H   H14       1.0  0.07895  0.99395  0.91702  1.0000
  H   H15       1.0  0.02449  0.00989  0.93302  1.0000
  H   H16       1.0  0.03831  0.95274  0.92607  1.0000
