data_image0
_chemical_formula_structural       COC8NC7OH25
_chemical_formula_sum              "C16 O2 N1 H25"
_cell_length_a       30
_cell_length_b       30
_cell_length_c       30
_cell_angle_alpha    90
_cell_angle_beta     90
_cell_angle_gamma    90

_space_group_name_H-M_alt    "P 1"
_space_group_IT_number       1

loop_
  _space_group_symop_operation_xyz
  'x, y, z'

loop_
  _atom_site_type_symbol
  _atom_site_label
  _atom_site_symmetry_multiplicity
  _atom_site_fract_x
  _atom_site_fract_y
  _atom_site_fract_z
  _atom_site_occupancy
  C   C1        1.0  0.06011  0.08257  0.03167  1.0000
  O   O1        1.0  0.06435  0.03572  0.03835  1.0000
  C   C2        1.0  0.09627  0.01500  0.01288  1.0000
  C   C3        1.0  0.13647  0.03557  0.00112  1.0000
  C   C4        1.0  0.16800  0.01280  0.97560  1.0000
  C   C5        1.0  0.15973  0.96928  0.96190  1.0000
  C   C6        1.0  0.12000  0.94833  0.97393  1.0000
  C   C7        1.0  0.08777  0.97064  0.99973  1.0000
  C   C8        1.0  0.04509  0.94583  0.01229  1.0000
  C   C9        1.0  0.04511  0.93496  0.06228  1.0000
  N   N1        1.0  0.00597  0.97125  0.99723  1.0000
  C   C10       1.0  0.96329  0.94990  0.00603  1.0000
  C   C11       1.0  0.92517  0.97596  0.98382  1.0000
  C   C12       1.0  0.88013  0.95360  0.99251  1.0000
  C   C13       1.0  0.84701  0.99045  0.98253  1.0000
  C   C14       1.0  0.86808  0.03147  0.00368  1.0000
  C   C15       1.0  0.91895  0.02416  0.00118  1.0000
  C   C16       1.0  0.94183  0.05880  0.97143  1.0000
  O   O2        1.0  0.94175  0.10132  0.99261  1.0000
  H   H1        1.0  0.08641  0.10053  0.04946  1.0000
  H   H2        1.0  0.02812  0.09290  0.04581  1.0000
  H   H3        1.0  0.05996  0.09122  0.99619  1.0000
  H   H4        1.0  0.14421  0.06922  0.01188  1.0000
  H   H5        1.0  0.19909  0.02904  0.96654  1.0000
  H   H6        1.0  0.18423  0.95155  0.94195  1.0000
  H   H7        1.0  0.11419  0.91426  0.96295  1.0000
  H   H8        1.0  0.04488  0.91402  0.99420  1.0000
  H   H9        1.0  0.01819  0.91182  0.07079  1.0000
  H   H10       1.0  0.04104  0.96479  0.08292  1.0000
  H   H11       1.0  0.07648  0.91900  0.07211  1.0000
  H   H12       1.0  0.00734  0.00132  0.01326  1.0000
  H   H13       1.0  0.95712  0.94786  0.04198  1.0000
  H   H14       1.0  0.96340  0.91583  0.99279  1.0000
  H   H15       1.0  0.93075  0.97667  0.94760  1.0000
  H   H16       1.0  0.87495  0.92440  0.97127  1.0000
  H   H17       1.0  0.87710  0.94303  0.02738  1.0000
  H   H18       1.0  0.84385  0.99517  0.94643  1.0000
  H   H19       1.0  0.81387  0.98342  0.99602  1.0000
  H   H20       1.0  0.85667  0.06198  0.98728  1.0000
  H   H21       1.0  0.85800  0.03359  0.03877  1.0000
  H   H22       1.0  0.93221  0.02748  0.03514  1.0000
  H   H23       1.0  0.97665  0.05019  0.96514  1.0000
  H   H24       1.0  0.92523  0.06188  0.93905  1.0000
  H   H25       1.0  0.91097  0.11121  0.99465  1.0000
