data_image0
_chemical_formula_structural       COC10NC2ONC6NC3H25
_chemical_formula_sum              "C22 O2 N3 H25"
_cell_length_a       30
_cell_length_b       30
_cell_length_c       30
_cell_angle_alpha    90
_cell_angle_beta     90
_cell_angle_gamma    90

_space_group_name_H-M_alt    "P 1"
_space_group_IT_number       1

loop_
  _space_group_symop_operation_xyz
  'x, y, z'

loop_
  _atom_site_type_symbol
  _atom_site_label
  _atom_site_symmetry_multiplicity
  _atom_site_fract_x
  _atom_site_fract_y
  _atom_site_fract_z
  _atom_site_occupancy
  C   C1        1.0  0.80195  0.12403  0.03811  1.0000
  O   O1        1.0  0.82430  0.11210  0.99806  1.0000
  C   C2        1.0  0.85146  0.07549  0.99977  1.0000
  C   C3        1.0  0.87277  0.06511  0.95980  1.0000
  C   C4        1.0  0.90155  0.02855  0.95703  1.0000
  C   C5        1.0  0.90991  0.00144  0.99435  1.0000
  C   C6        1.0  0.94188  0.96199  0.98926  1.0000
  C   C7        1.0  0.94446  0.93014  0.02979  1.0000
  C   C8        1.0  0.97452  0.88944  0.02145  1.0000
  C   C9        1.0  0.95160  0.85479  0.99171  1.0000
  C   C10       1.0  0.01950  0.90406  0.00206  1.0000
  C   C11       1.0  0.01435  0.93683  0.96327  1.0000
  N   N1        1.0  0.98683  0.97590  0.97403  1.0000
  C   C12       1.0  0.00896  0.00776  0.00441  1.0000
  C   C13       1.0  0.05132  0.02770  0.98319  1.0000
  O   O2        1.0  0.04997  0.04916  0.94839  1.0000
  N   N2        1.0  0.08948  0.01864  0.00788  1.0000
  C   C14       1.0  0.13353  0.03233  0.99860  1.0000
  C   C15       1.0  0.14585  0.05682  0.96099  1.0000
  C   C16       1.0  0.19028  0.06942  0.95436  1.0000
  C   C17       1.0  0.22288  0.05773  0.98537  1.0000
  C   C18       1.0  0.21108  0.03313  0.02309  1.0000
  C   C19       1.0  0.24434  0.02109  0.05540  1.0000
  N   N3        1.0  0.27083  0.01149  0.08193  1.0000
  C   C20       1.0  0.16656  0.02041  0.02955  1.0000
  C   C21       1.0  0.88822  0.01219  0.03435  1.0000
  C   C22       1.0  0.85926  0.04883  0.03704  1.0000
  H   H1        1.0  0.77918  0.09756  0.04883  1.0000
  H   H2        1.0  0.78197  0.15380  0.03124  1.0000
  H   H3        1.0  0.82573  0.13250  0.06450  1.0000
  H   H4        1.0  0.86716  0.08572  0.93050  1.0000
  H   H5        1.0  0.91811  0.02152  0.92549  1.0000
  H   H6        1.0  0.92698  0.94255  0.96195  1.0000
  H   H7        1.0  0.91093  0.91860  0.03885  1.0000
  H   H8        1.0  0.95730  0.94808  0.05900  1.0000
  H   H9        1.0  0.98077  0.87315  0.05364  1.0000
  H   H10       1.0  0.92016  0.84381  0.00667  1.0000
  H   H11       1.0  0.94420  0.86768  0.95840  1.0000
  H   H12       1.0  0.97279  0.82529  0.98778  1.0000
  H   H13       1.0  0.03851  0.87489  0.99091  1.0000
  H   H14       1.0  0.03940  0.91956  0.02853  1.0000
  H   H15       1.0  0.99928  0.91957  0.93475  1.0000
  H   H16       1.0  0.04741  0.94694  0.95145  1.0000
  H   H17       1.0  0.01660  0.99261  0.03673  1.0000
  H   H18       1.0  0.98770  0.03668  0.01130  1.0000
  H   H19       1.0  0.08536  0.00043  0.03601  1.0000
  H   H20       1.0  0.12166  0.06672  0.93588  1.0000
  H   H21       1.0  0.19920  0.08849  0.92487  1.0000
  H   H22       1.0  0.25728  0.06790  0.97990  1.0000
  H   H23       1.0  0.15795  0.00126  0.05917  1.0000
  H   H24       1.0  0.89330  0.99251  0.06434  1.0000
  H   H25       1.0  0.84342  0.05559  0.06884  1.0000
