data_image0
_chemical_formula_structural       COC4ClCN2COC6OC3NCH16
_chemical_formula_sum              "C17 O3 Cl1 N3 H16"
_cell_length_a       30
_cell_length_b       30
_cell_length_c       30
_cell_angle_alpha    90
_cell_angle_beta     90
_cell_angle_gamma    90

_space_group_name_H-M_alt    "P 1"
_space_group_IT_number       1

loop_
  _space_group_symop_operation_xyz
  'x, y, z'

loop_
  _atom_site_type_symbol
  _atom_site_label
  _atom_site_symmetry_multiplicity
  _atom_site_fract_x
  _atom_site_fract_y
  _atom_site_fract_z
  _atom_site_occupancy
  C   C1        1.0  0.22220  0.96598  0.02635  1.0000
  O   O1        1.0  0.21063  0.01145  0.03325  1.0000
  C   C2        1.0  0.17164  0.02599  0.01464  1.0000
  C   C3        1.0  0.16108  0.07026  0.02409  1.0000
  C   C4        1.0  0.12244  0.08948  0.00686  1.0000
  C   C5        1.0  0.09374  0.06432  0.98015  1.0000
  Cl  Cl1       1.0  0.04747  0.09155  0.95873  1.0000
  C   C6        1.0  0.10310  0.01916  0.97088  1.0000
  N   N1        1.0  0.07639  0.99160  0.94267  1.0000
  N   N2        1.0  0.03081  0.99203  0.95475  1.0000
  C   C7        1.0  0.01378  0.95449  0.97569  1.0000
  O   O2        1.0  0.03660  0.92068  0.98027  1.0000
  C   C8        1.0  0.96847  0.95848  0.99178  1.0000
  C   C9        1.0  0.94623  0.92959  0.02015  1.0000
  C   C10       1.0  0.90244  0.94600  0.02734  1.0000
  C   C11       1.0  0.86579  0.93134  0.05258  1.0000
  C   C12       1.0  0.82638  0.95635  0.05193  1.0000
  C   C13       1.0  0.82283  0.99533  0.02674  1.0000
  O   O3        1.0  0.78213  0.01588  0.02962  1.0000
  C   C14       1.0  0.77634  0.05572  0.00463  1.0000
  C   C15       1.0  0.85901  0.01033  0.00138  1.0000
  C   C16       1.0  0.89831  0.98493  0.00247  1.0000
  N   N3        1.0  0.93838  0.99151  0.98107  1.0000
  C   C17       1.0  0.14298  0.00088  0.98784  1.0000
  H   H1        1.0  0.19684  0.94368  0.04021  1.0000
  H   H2        1.0  0.25344  0.95963  0.04407  1.0000
  H   H3        1.0  0.22792  0.95913  0.99096  1.0000
  H   H4        1.0  0.18333  0.09002  0.04481  1.0000
  H   H5        1.0  0.11515  0.12422  0.01414  1.0000
  H   H6        1.0  0.08744  0.95913  0.94380  1.0000
  H   H7        1.0  0.01622  0.02246  0.95581  1.0000
  H   H8        1.0  0.96052  0.89964  0.03440  1.0000
  H   H9        1.0  0.86785  0.90108  0.07233  1.0000
  H   H10       1.0  0.79797  0.94509  0.07144  1.0000
  H   H11       1.0  0.79940  0.08172  0.01579  1.0000
  H   H12       1.0  0.77983  0.04944  0.96885  1.0000
  H   H13       1.0  0.74241  0.06774  0.01052  1.0000
  H   H14       1.0  0.85753  0.04034  0.98140  1.0000
  H   H15       1.0  0.94411  0.01688  0.95973  1.0000
  H   H16       1.0  0.15085  0.96646  0.97992  1.0000
