data_image0
_chemical_formula_structural       COC8ONC2NC10NC2N2COC2H31
_chemical_formula_sum              "C26 O3 N5 H31"
_cell_length_a       30
_cell_length_b       30
_cell_length_c       30
_cell_angle_alpha    90
_cell_angle_beta     90
_cell_angle_gamma    90

_space_group_name_H-M_alt    "P 1"
_space_group_IT_number       1

loop_
  _space_group_symop_operation_xyz
  'x, y, z'

loop_
  _atom_site_type_symbol
  _atom_site_label
  _atom_site_symmetry_multiplicity
  _atom_site_fract_x
  _atom_site_fract_y
  _atom_site_fract_z
  _atom_site_occupancy
  C   C1        1.0  0.22943  0.97885  0.07163  1.0000
  O   O1        1.0  0.19209  0.00742  0.06541  1.0000
  C   C2        1.0  0.16573  0.99928  0.02916  1.0000
  C   C3        1.0  0.17111  0.96485  0.99868  1.0000
  C   C4        1.0  0.14121  0.96048  0.96320  1.0000
  C   C5        1.0  0.10543  0.99033  0.95744  1.0000
  C   C6        1.0  0.07672  0.98247  0.91844  1.0000
  C   C7        1.0  0.09547  0.99668  0.87427  1.0000
  C   C8        1.0  0.03643  0.96329  0.92247  1.0000
  C   C9        1.0  0.01937  0.94611  0.96528  1.0000
  O   O2        1.0  0.01911  0.90532  0.96995  1.0000
  N   N1        1.0  0.00258  0.97596  0.99685  1.0000
  C   C10       1.0  0.97802  0.95320  0.03302  1.0000
  C   C11       1.0  0.93070  0.93828  0.01886  1.0000
  N   N2        1.0  0.90085  0.92722  0.05649  1.0000
  C   C12       1.0  0.85567  0.91897  0.03983  1.0000
  C   C13       1.0  0.91676  0.88780  0.08069  1.0000
  C   C14       1.0  0.99089  0.02360  0.98649  1.0000
  C   C15       1.0  0.97140  0.04953  0.02646  1.0000
  C   C16       1.0  0.99832  0.05618  0.06458  1.0000
  C   C17       1.0  0.98256  0.07896  0.10189  1.0000
  C   C18       1.0  0.93957  0.09601  0.10189  1.0000
  C   C19       1.0  0.91251  0.09041  0.06451  1.0000
  C   C20       1.0  0.92780  0.06736  0.02652  1.0000
  C   C21       1.0  0.89784  0.06351  0.98829  1.0000
  N   N3        1.0  0.90693  0.07102  0.94593  1.0000
  C   C22       1.0  0.86722  0.06301  0.92475  1.0000
  C   C23       1.0  0.86170  0.06810  0.87614  1.0000
  N   N4        1.0  0.83393  0.05031  0.95155  1.0000
  N   N5        1.0  0.85411  0.05062  0.99147  1.0000
  C   C24       1.0  0.02737  0.05394  0.96502  1.0000
  O   O3        1.0  0.06796  0.05738  0.98954  1.0000
  C   C25       1.0  0.09964  0.02477  0.98845  1.0000
  C   C26       1.0  0.13022  0.02890  0.02367  1.0000
  H   H1        1.0  0.25254  0.98104  0.04346  1.0000
  H   H2        1.0  0.24719  0.99007  0.10145  1.0000
  H   H3        1.0  0.21884  0.94438  0.07737  1.0000
  H   H4        1.0  0.19792  0.94075  0.00144  1.0000
  H   H5        1.0  0.14585  0.93302  0.93993  1.0000
  H   H6        1.0  0.12584  0.97803  0.86635  1.0000
  H   H7        1.0  0.07172  0.99097  0.84713  1.0000
  H   H8        1.0  0.10349  0.03231  0.87447  1.0000
  H   H9        1.0  0.01582  0.95581  0.89378  1.0000
  H   H10       1.0  0.99724  0.92384  0.04331  1.0000
  H   H11       1.0  0.97670  0.97420  0.06266  1.0000
  H   H12       1.0  0.91545  0.96554  0.99993  1.0000
  H   H13       1.0  0.93320  0.91005  0.99567  1.0000
  H   H14       1.0  0.83324  0.91015  0.06729  1.0000
  H   H15       1.0  0.85464  0.89214  0.01506  1.0000
  H   H16       1.0  0.84201  0.94931  0.02467  1.0000
  H   H17       1.0  0.89424  0.87987  0.10832  1.0000
  H   H18       1.0  0.94940  0.89380  0.09582  1.0000
  H   H19       1.0  0.91922  0.85845  0.05909  1.0000
  H   H20       1.0  0.96520  0.01988  0.96096  1.0000
  H   H21       1.0  0.03198  0.04261  0.06558  1.0000
  H   H22       1.0  0.00397  0.08325  0.13082  1.0000
  H   H23       1.0  0.92720  0.11395  0.13084  1.0000
  H   H24       1.0  0.87936  0.10510  0.06506  1.0000
  H   H25       1.0  0.84415  0.03943  0.86194  1.0000
  H   H26       1.0  0.89414  0.07079  0.85967  1.0000
  H   H27       1.0  0.84259  0.09824  0.86862  1.0000
  H   H28       1.0  0.83683  0.04151  0.01907  1.0000
  H   H29       1.0  0.01414  0.08814  0.96408  1.0000
  H   H30       1.0  0.03311  0.04740  0.92974  1.0000
  H   H31       1.0  0.12611  0.05585  0.04759  1.0000
