data_image0
_chemical_formula_structural       COC6ONC5ONC2F3C4OC4H23
_chemical_formula_sum              "C22 O4 N2 F3 H23"
_cell_length_a       30
_cell_length_b       30
_cell_length_c       30
_cell_angle_alpha    90
_cell_angle_beta     90
_cell_angle_gamma    90

_space_group_name_H-M_alt    "P 1"
_space_group_IT_number       1

loop_
  _space_group_symop_operation_xyz
  'x, y, z'

loop_
  _atom_site_type_symbol
  _atom_site_label
  _atom_site_symmetry_multiplicity
  _atom_site_fract_x
  _atom_site_fract_y
  _atom_site_fract_z
  _atom_site_occupancy
  C   C1        1.0  0.83642  0.14244  0.95478  1.0000
  O   O1        1.0  0.83086  0.09737  0.94121  1.0000
  C   C2        1.0  0.85429  0.06587  0.96433  1.0000
  C   C3        1.0  0.84729  0.02213  0.95032  1.0000
  C   C4        1.0  0.86924  0.98649  0.97092  1.0000
  C   C5        1.0  0.89926  0.99378  0.00598  1.0000
  C   C6        1.0  0.92443  0.95556  0.02973  1.0000
  C   C7        1.0  0.97384  0.96945  0.03804  1.0000
  O   O2        1.0  0.99001  0.96987  0.07565  1.0000
  N   N1        1.0  0.99650  0.98005  0.99904  1.0000
  C   C8        1.0  0.04145  0.99279  0.99436  1.0000
  C   C9        1.0  0.07197  0.99429  0.02947  1.0000
  C   C10       1.0  0.11624  0.00726  0.02203  1.0000
  C   C11       1.0  0.13051  0.01854  0.97911  1.0000
  C   C12       1.0  0.17716  0.03256  0.96951  1.0000
  O   O3        1.0  0.18558  0.05545  0.93675  1.0000
  N   N2        1.0  0.20961  0.01735  0.99829  1.0000
  C   C13       1.0  0.25674  0.02566  0.98848  1.0000
  C   C14       1.0  0.28843  0.01623  0.02710  1.0000
  F   F1        1.0  0.33138  0.02150  0.01468  1.0000
  F   F2        1.0  0.28350  0.97378  0.04169  1.0000
  F   F3        1.0  0.28067  0.04356  0.06203  1.0000
  C   C15       1.0  0.09995  0.01751  0.94394  1.0000
  C   C16       1.0  0.05581  0.00456  0.95153  1.0000
  C   C17       1.0  0.92684  0.91052  0.00386  1.0000
  C   C18       1.0  0.89178  0.87680  0.01890  1.0000
  O   O4        1.0  0.85142  0.89874  0.03009  1.0000
  C   C19       1.0  0.85524  0.92554  0.06925  1.0000
  C   C20       1.0  0.90125  0.94666  0.07494  1.0000
  C   C21       1.0  0.90529  0.03811  0.02032  1.0000
  C   C22       1.0  0.88332  0.07373  0.99962  1.0000
  H   H1        1.0  0.87101  0.15330  0.95049  1.0000
  H   H2        1.0  0.81553  0.16321  0.93327  1.0000
  H   H3        1.0  0.82522  0.14732  0.98918  1.0000
  H   H4        1.0  0.82410  0.01553  0.92323  1.0000
  H   H5        1.0  0.86138  0.95309  0.95925  1.0000
  H   H6        1.0  0.97785  0.98126  0.97086  1.0000
  H   H7        1.0  0.06242  0.98582  0.06333  1.0000
  H   H8        1.0  0.13859  0.00917  0.05046  1.0000
  H   H9        1.0  0.20229  0.99117  0.01835  1.0000
  H   H10       1.0  0.26044  0.06038  0.97779  1.0000
  H   H11       1.0  0.26549  0.00445  0.96006  1.0000
  H   H12       1.0  0.11040  0.02679  0.91045  1.0000
  H   H13       1.0  0.03293  0.00409  0.92342  1.0000
  H   H14       1.0  0.95944  0.89442  0.00823  1.0000
  H   H15       1.0  0.92409  0.91601  0.96784  1.0000
  H   H16       1.0  0.90346  0.85725  0.04750  1.0000
  H   H17       1.0  0.88496  0.85320  0.99190  1.0000
  H   H18       1.0  0.82960  0.95143  0.06702  1.0000
  H   H19       1.0  0.84709  0.90500  0.09832  1.0000
  H   H20       1.0  0.92179  0.92343  0.09449  1.0000
  H   H21       1.0  0.89862  0.97676  0.09556  1.0000
  H   H22       1.0  0.92740  0.04569  0.04814  1.0000
  H   H23       1.0  0.88963  0.10709  0.01209  1.0000
