data_image0
_chemical_formula_structural       COC8NCOCONC8O2H20
_chemical_formula_sum              "C19 O5 N2 H20"
_cell_length_a       30
_cell_length_b       30
_cell_length_c       30
_cell_angle_alpha    90
_cell_angle_beta     90
_cell_angle_gamma    90

_space_group_name_H-M_alt    "P 1"
_space_group_IT_number       1

loop_
  _space_group_symop_operation_xyz
  'x, y, z'

loop_
  _atom_site_type_symbol
  _atom_site_label
  _atom_site_symmetry_multiplicity
  _atom_site_fract_x
  _atom_site_fract_y
  _atom_site_fract_z
  _atom_site_occupancy
  C   C1        1.0  0.87205  0.11859  0.92259  1.0000
  O   O1        1.0  0.88468  0.07954  0.94630  1.0000
  C   C2        1.0  0.87115  0.07579  0.98977  1.0000
  C   C3        1.0  0.84377  0.10673  0.01150  1.0000
  C   C4        1.0  0.83107  0.10022  0.05581  1.0000
  C   C5        1.0  0.84546  0.06269  0.07884  1.0000
  C   C6        1.0  0.87269  0.03165  0.05758  1.0000
  C   C7        1.0  0.88611  0.03774  0.01293  1.0000
  C   C8        1.0  0.91589  0.00318  0.99063  1.0000
  C   C9        1.0  0.89068  0.95920  0.98433  1.0000
  N   N1        1.0  0.95653  0.99688  0.01624  1.0000
  C   C10       1.0  0.99367  0.97613  0.99931  1.0000
  O   O2        1.0  0.99680  0.95730  0.96326  1.0000
  C   C11       1.0  0.03460  0.97811  0.03054  1.0000
  O   O3        1.0  0.03053  0.99574  0.06706  1.0000
  N   N2        1.0  0.07136  0.95841  0.01124  1.0000
  C   C12       1.0  0.11490  0.95450  0.02840  1.0000
  C   C13       1.0  0.12644  0.97171  0.07025  1.0000
  C   C14       1.0  0.16990  0.96810  0.08658  1.0000
  C   C15       1.0  0.20256  0.94723  0.06129  1.0000
  C   C16       1.0  0.19171  0.92975  0.01968  1.0000
  C   C17       1.0  0.14798  0.93284  0.00276  1.0000
  C   C18       1.0  0.13886  0.91241  0.95744  1.0000
  C   C19       1.0  0.13393  0.94599  0.92032  1.0000
  O   O4        1.0  0.12762  0.98601  0.92332  1.0000
  O   O5        1.0  0.13545  0.92647  0.87979  1.0000
  H   H1        1.0  0.83580  0.12049  0.91881  1.0000
  H   H2        1.0  0.88656  0.11648  0.88919  1.0000
  H   H3        1.0  0.88531  0.14861  0.93856  1.0000
  H   H4        1.0  0.83154  0.13639  0.99480  1.0000
  H   H5        1.0  0.80980  0.12450  0.07228  1.0000
  H   H6        1.0  0.83549  0.05753  0.11329  1.0000
  H   H7        1.0  0.88351  0.00236  0.07608  1.0000
  H   H8        1.0  0.92650  0.01456  0.95759  1.0000
  H   H9        1.0  0.85969  0.96444  0.96571  1.0000
  H   H10       1.0  0.88211  0.94376  0.01631  1.0000
  H   H11       1.0  0.91078  0.93501  0.96581  1.0000
  H   H12       1.0  0.96109  0.01411  0.04506  1.0000
  H   H13       1.0  0.06524  0.94720  0.97989  1.0000
  H   H14       1.0  0.10224  0.98858  0.09119  1.0000
  H   H15       1.0  0.17807  0.98187  0.11909  1.0000
  H   H16       1.0  0.23641  0.94458  0.07392  1.0000
  H   H17       1.0  0.21781  0.91351  0.00041  1.0000
  H   H18       1.0  0.16628  0.88991  0.94856  1.0000
  H   H19       1.0  0.10864  0.89195  0.95901  1.0000
  H   H20       1.0  0.13079  0.95126  0.85898  1.0000
