data_image0
_chemical_formula_structural       COC4NC2OCOC2OCH13
_chemical_formula_sum              "C11 O4 N1 H13"
_cell_length_a       30
_cell_length_b       30
_cell_length_c       30
_cell_angle_alpha    90
_cell_angle_beta     90
_cell_angle_gamma    90

_space_group_name_H-M_alt    "P 1"
_space_group_IT_number       1

loop_
  _space_group_symop_operation_xyz
  'x, y, z'

loop_
  _atom_site_type_symbol
  _atom_site_label
  _atom_site_symmetry_multiplicity
  _atom_site_fract_x
  _atom_site_fract_y
  _atom_site_fract_z
  _atom_site_occupancy
  C   C1        1.0  0.13117  0.93145  0.01293  1.0000
  O   O1        1.0  0.11403  0.97487  0.00517  1.0000
  C   C2        1.0  0.06860  0.97995  0.00401  1.0000
  C   C3        1.0  0.03804  0.94541  0.00987  1.0000
  C   C4        1.0  0.99215  0.95385  0.00814  1.0000
  C   C5        1.0  0.97558  0.99687  0.00054  1.0000
  N   N1        1.0  0.92889  0.00462  0.99868  1.0000
  C   C6        1.0  0.89639  0.97003  0.00340  1.0000
  C   C7        1.0  0.85362  0.99283  0.99040  1.0000
  O   O2        1.0  0.86188  0.03906  0.99748  1.0000
  C   C8        1.0  0.90721  0.04555  0.99775  1.0000
  O   O3        1.0  0.92320  0.08296  0.99784  1.0000
  C   C9        1.0  0.00661  0.03129  0.99454  1.0000
  C   C10       1.0  0.05272  0.02337  0.99637  1.0000
  O   O4        1.0  0.08472  0.05568  0.99072  1.0000
  C   C11       1.0  0.07016  0.10060  0.98688  1.0000
  H   H1        1.0  0.12134  0.90846  0.98633  1.0000
  H   H2        1.0  0.12097  0.91891  0.04566  1.0000
  H   H3        1.0  0.16758  0.93363  0.01277  1.0000
  H   H4        1.0  0.04873  0.91141  0.01595  1.0000
  H   H5        1.0  0.97004  0.92566  0.01327  1.0000
  H   H6        1.0  0.89549  0.95955  0.03838  1.0000
  H   H7        1.0  0.90309  0.94134  0.98191  1.0000
  H   H8        1.0  0.84554  0.98787  0.95514  1.0000
  H   H9        1.0  0.82537  0.98177  0.01062  1.0000
  H   H10       1.0  0.99494  0.06476  0.98782  1.0000
  H   H11       1.0  0.05115  0.11094  0.01628  1.0000
  H   H12       1.0  0.05098  0.10558  0.95624  1.0000
  H   H13       1.0  0.09981  0.12176  0.98490  1.0000
