data_image0
_chemical_formula_structural       COC5N2C3NC2OCOC8H29
_chemical_formula_sum              "C20 O3 N3 H29"
_cell_length_a       30
_cell_length_b       30
_cell_length_c       30
_cell_angle_alpha    90
_cell_angle_beta     90
_cell_angle_gamma    90

_space_group_name_H-M_alt    "P 1"
_space_group_IT_number       1

loop_
  _space_group_symop_operation_xyz
  'x, y, z'

loop_
  _atom_site_type_symbol
  _atom_site_label
  _atom_site_symmetry_multiplicity
  _atom_site_fract_x
  _atom_site_fract_y
  _atom_site_fract_z
  _atom_site_occupancy
  C   C1        1.0  0.20521  0.89902  0.06327  1.0000
  O   O1        1.0  0.16359  0.91693  0.07722  1.0000
  C   C2        1.0  0.14577  0.95002  0.05141  1.0000
  C   C3        1.0  0.16410  0.96694  0.01215  1.0000
  C   C4        1.0  0.14216  0.00089  0.98880  1.0000
  C   C5        1.0  0.10161  0.01803  0.00429  1.0000
  C   C6        1.0  0.07885  0.05305  0.97933  1.0000
  N   N1        1.0  0.10022  0.09101  0.96902  1.0000
  N   N2        1.0  0.06957  0.11557  0.94785  1.0000
  C   C7        1.0  0.03024  0.09408  0.94152  1.0000
  C   C8        1.0  0.03435  0.05303  0.96201  1.0000
  C   C9        1.0  0.00059  0.01634  0.96395  1.0000
  N   N3        1.0  0.95573  0.03419  0.97286  1.0000
  C   C10       1.0  0.95065  0.04892  0.01953  1.0000
  C   C11       1.0  0.90758  0.07543  0.02976  1.0000
  O   O2        1.0  0.90359  0.08281  0.07695  1.0000
  C   C12       1.0  0.90541  0.12055  0.00562  1.0000
  O   O3        1.0  0.94296  0.14795  0.01573  1.0000
  C   C13       1.0  0.92014  0.00467  0.95654  1.0000
  C   C14       1.0  0.90736  0.96357  0.98445  1.0000
  C   C15       1.0  0.86870  0.93781  0.96333  1.0000
  C   C16       1.0  0.86895  0.89380  0.98847  1.0000
  C   C17       1.0  0.91800  0.88422  0.99800  1.0000
  C   C18       1.0  0.94320  0.92759  0.98884  1.0000
  C   C19       1.0  0.08361  0.00140  0.04394  1.0000
  C   C20       1.0  0.10557  0.96750  0.06718  1.0000
  H   H1        1.0  0.20231  0.88289  0.03064  1.0000
  H   H2        1.0  0.23118  0.92467  0.06307  1.0000
  H   H3        1.0  0.21504  0.87348  0.08740  1.0000
  H   H4        1.0  0.19536  0.95469  0.99873  1.0000
  H   H5        1.0  0.15686  0.01409  0.95838  1.0000
  H   H6        1.0  0.07808  0.14680  0.93815  1.0000
  H   H7        1.0  0.00272  0.10944  0.92413  1.0000
  H   H8        1.0  0.00978  0.99116  0.98860  1.0000
  H   H9        1.0  0.00149  0.99993  0.93124  1.0000
  H   H10       1.0  0.95270  0.02018  0.04211  1.0000
  H   H11       1.0  0.97885  0.07001  0.02944  1.0000
  H   H12       1.0  0.87815  0.05595  0.02047  1.0000
  H   H13       1.0  0.90775  0.05436  0.09175  1.0000
  H   H14       1.0  0.90411  0.11598  0.96943  1.0000
  H   H15       1.0  0.87553  0.13865  0.01626  1.0000
  H   H16       1.0  0.93576  0.17785  0.00563  1.0000
  H   H17       1.0  0.92814  0.99411  0.92237  1.0000
  H   H18       1.0  0.89006  0.02512  0.95234  1.0000
  H   H19       1.0  0.89684  0.97400  0.01793  1.0000
  H   H20       1.0  0.83687  0.95529  0.96678  1.0000
  H   H21       1.0  0.87470  0.93194  0.92774  1.0000
  H   H22       1.0  0.85306  0.86700  0.96951  1.0000
  H   H23       1.0  0.85079  0.89737  0.01998  1.0000
  H   H24       1.0  0.93061  0.85747  0.97654  1.0000
  H   H25       1.0  0.92241  0.87342  0.03261  1.0000
  H   H26       1.0  0.96224  0.92419  0.95781  1.0000
  H   H27       1.0  0.96676  0.93488  0.01574  1.0000
  H   H28       1.0  0.05277  0.01501  0.05728  1.0000
  H   H29       1.0  0.09138  0.95479  0.09802  1.0000
