data_image0
_chemical_formula_structural       COC16NC3SCNC5H36
_chemical_formula_sum              "C26 O1 N2 S1 H36"
_cell_length_a       30
_cell_length_b       30
_cell_length_c       30
_cell_angle_alpha    90
_cell_angle_beta     90
_cell_angle_gamma    90

_space_group_name_H-M_alt    "P 1"
_space_group_IT_number       1

loop_
  _space_group_symop_operation_xyz
  'x, y, z'

loop_
  _atom_site_type_symbol
  _atom_site_label
  _atom_site_symmetry_multiplicity
  _atom_site_fract_x
  _atom_site_fract_y
  _atom_site_fract_z
  _atom_site_occupancy
  C   C1        1.0  0.82771  0.97258  0.99127  1.0000
  O   O1        1.0  0.86885  0.97540  0.96757  1.0000
  C   C2        1.0  0.87565  0.01765  0.95152  1.0000
  C   C3        1.0  0.84902  0.03248  0.91608  1.0000
  C   C4        1.0  0.85611  0.07425  0.89718  1.0000
  C   C5        1.0  0.89043  0.10102  0.91301  1.0000
  C   C6        1.0  0.91761  0.08593  0.94769  1.0000
  C   C7        1.0  0.91083  0.04393  0.96785  1.0000
  C   C8        1.0  0.94284  0.02987  0.00546  1.0000
  C   C9        1.0  0.98557  0.00564  0.98917  1.0000
  C   C10       1.0  0.98436  0.97416  0.95685  1.0000
  C   C11       1.0  0.01933  0.94954  0.93431  1.0000
  C   C12       1.0  0.05265  0.92424  0.95022  1.0000
  C   C13       1.0  0.06515  0.91375  0.99768  1.0000
  C   C14       1.0  0.10726  0.93938  0.01255  1.0000
  C   C15       1.0  0.09629  0.98474  0.03024  1.0000
  C   C16       1.0  0.06729  0.01205  0.00015  1.0000
  C   C17       1.0  0.02549  0.02051  0.01309  1.0000
  N   N1        1.0  0.10736  0.02824  0.01478  1.0000
  C   C18       1.0  0.14565  0.03792  0.98556  1.0000
  C   C19       1.0  0.14019  0.02238  0.93721  1.0000
  C   C20       1.0  0.18926  0.02277  0.00835  1.0000
  S   S1        1.0  0.24056  0.04057  0.98041  1.0000
  C   C21       1.0  0.25576  0.98851  0.95402  1.0000
  N   N2        1.0  0.91929  0.01117  0.04460  1.0000
  C   C22       1.0  0.93156  0.96606  0.05860  1.0000
  C   C23       1.0  0.91413  0.95377  0.10516  1.0000
  C   C24       1.0  0.87043  0.97715  0.11586  1.0000
  C   C25       1.0  0.87526  0.02771  0.11182  1.0000
  C   C26       1.0  0.91373  0.04228  0.08145  1.0000
  H   H1        1.0  0.82394  0.99985  0.01527  1.0000
  H   H2        1.0  0.79942  0.97192  0.96825  1.0000
  H   H3        1.0  0.82776  0.94114  0.00971  1.0000
  H   H4        1.0  0.82298  0.01117  0.90273  1.0000
  H   H5        1.0  0.83522  0.08556  0.86981  1.0000
  H   H6        1.0  0.89648  0.13351  0.89817  1.0000
  H   H7        1.0  0.94471  0.10732  0.95890  1.0000
  H   H8        1.0  0.95570  0.06228  0.01706  1.0000
  H   H9        1.0  0.95202  0.96648  0.94223  1.0000
  H   H10       1.0  0.01619  0.95139  0.89808  1.0000
  H   H11       1.0  0.07442  0.90881  0.92552  1.0000
  H   H12       1.0  0.07220  0.87787  0.99923  1.0000
  H   H13       1.0  0.03730  0.91963  0.02057  1.0000
  H   H14       1.0  0.13199  0.94011  0.98583  1.0000
  H   H15       1.0  0.12287  0.92067  0.03986  1.0000
  H   H16       1.0  0.08576  0.98353  0.06481  1.0000
  H   H17       1.0  0.02009  0.03282  0.04680  1.0000
  H   H18       1.0  0.14685  0.07451  0.98394  1.0000
  H   H19       1.0  0.14145  0.98617  0.93378  1.0000
  H   H20       1.0  0.10854  0.03386  0.92315  1.0000
  H   H21       1.0  0.16645  0.03618  0.91598  1.0000
  H   H22       1.0  0.19053  0.03694  0.04204  1.0000
  H   H23       1.0  0.18999  0.98657  0.01261  1.0000
  H   H24       1.0  0.26173  0.96291  0.97922  1.0000
  H   H25       1.0  0.22970  0.97739  0.93112  1.0000
  H   H26       1.0  0.28659  0.99333  0.93512  1.0000
  H   H27       1.0  0.91832  0.94209  0.03445  1.0000
  H   H28       1.0  0.96774  0.96117  0.05982  1.0000
  H   H29       1.0  0.90995  0.91758  0.10753  1.0000
  H   H30       1.0  0.93905  0.96321  0.13026  1.0000
  H   H31       1.0  0.85897  0.96830  0.14942  1.0000
  H   H32       1.0  0.84454  0.96556  0.09274  1.0000
  H   H33       1.0  0.88056  0.04218  0.14499  1.0000
  H   H34       1.0  0.84370  0.04151  0.09945  1.0000
  H   H35       1.0  0.94480  0.04492  0.10061  1.0000
  H   H36       1.0  0.90587  0.07590  0.06943  1.0000
