data_image0
_chemical_formula_structural       COC4FC3SC4NCNC4NH20
_chemical_formula_sum              "C17 O1 F1 S1 N3 H20"
_cell_length_a       30
_cell_length_b       30
_cell_length_c       30
_cell_angle_alpha    90
_cell_angle_beta     90
_cell_angle_gamma    90

_space_group_name_H-M_alt    "P 1"
_space_group_IT_number       1

loop_
  _space_group_symop_operation_xyz
  'x, y, z'

loop_
  _atom_site_type_symbol
  _atom_site_label
  _atom_site_symmetry_multiplicity
  _atom_site_fract_x
  _atom_site_fract_y
  _atom_site_fract_z
  _atom_site_occupancy
  C   C1        1.0  0.12765  0.95615  0.11496  1.0000
  O   O1        1.0  0.10198  0.96751  0.07678  1.0000
  C   C2        1.0  0.12330  0.98939  0.04282  1.0000
  C   C3        1.0  0.16698  0.00577  0.04528  1.0000
  C   C4        1.0  0.18599  0.02778  0.00892  1.0000
  C   C5        1.0  0.16142  0.03342  0.97016  1.0000
  F   F1        1.0  0.17978  0.05444  0.93532  1.0000
  C   C6        1.0  0.11805  0.01758  0.96706  1.0000
  C   C7        1.0  0.09835  0.99554  0.00345  1.0000
  C   C8        1.0  0.05128  0.97813  0.99887  1.0000
  S   S1        1.0  0.05079  0.92286  0.97329  1.0000
  C   C9        1.0  0.99243  0.90904  0.98246  1.0000
  C   C10       1.0  0.96089  0.93896  0.95733  1.0000
  C   C11       1.0  0.95370  0.93312  0.91234  1.0000
  C   C12       1.0  0.92519  0.96305  0.89287  1.0000
  N   N1        1.0  0.90508  0.99629  0.91522  1.0000
  C   C13       1.0  0.91376  0.00010  0.95896  1.0000
  N   N2        1.0  0.89461  0.03432  0.98224  1.0000
  C   C14       1.0  0.85854  0.05998  0.96285  1.0000
  C   C15       1.0  0.84436  0.09010  0.00132  1.0000
  C   C16       1.0  0.85094  0.06027  0.04183  1.0000
  C   C17       1.0  0.89304  0.03370  0.03062  1.0000
  N   N3        1.0  0.94128  0.97219  0.98065  1.0000
  H   H1        1.0  0.10632  0.93681  0.13735  1.0000
  H   H2        1.0  0.13831  0.98607  0.13293  1.0000
  H   H3        1.0  0.15618  0.93520  0.10600  1.0000
  H   H4        1.0  0.18711  0.00203  0.07508  1.0000
  H   H5        1.0  0.21982  0.04049  0.01063  1.0000
  H   H6        1.0  0.09980  0.02234  0.93614  1.0000
  H   H7        1.0  0.03472  0.97698  0.03137  1.0000
  H   H8        1.0  0.03212  0.00122  0.97805  1.0000
  H   H9        1.0  0.98538  0.91039  0.01827  1.0000
  H   H10       1.0  0.98706  0.87441  0.97215  1.0000
  H   H11       1.0  0.96969  0.90701  0.89333  1.0000
  H   H12       1.0  0.91747  0.96136  0.85756  1.0000
  H   H13       1.0  0.83081  0.03828  0.95301  1.0000
  H   H14       1.0  0.86928  0.07966  0.93404  1.0000
  H   H15       1.0  0.81008  0.10201  0.99788  1.0000
  H   H16       1.0  0.86650  0.11911  0.00348  1.0000
  H   H17       1.0  0.82248  0.03757  0.04520  1.0000
  H   H18       1.0  0.85417  0.07905  0.07291  1.0000
  H   H19       1.0  0.89062  0.00014  0.04485  1.0000
  H   H20       1.0  0.92269  0.05017  0.04414  1.0000
