data_image0
_chemical_formula_structural       COC8N2CSC3ONC5OSH23
_chemical_formula_sum              "C18 O3 N3 S2 H23"
_cell_length_a       30
_cell_length_b       30
_cell_length_c       30
_cell_angle_alpha    90
_cell_angle_beta     90
_cell_angle_gamma    90

_space_group_name_H-M_alt    "P 1"
_space_group_IT_number       1

loop_
  _space_group_symop_operation_xyz
  'x, y, z'

loop_
  _atom_site_type_symbol
  _atom_site_label
  _atom_site_symmetry_multiplicity
  _atom_site_fract_x
  _atom_site_fract_y
  _atom_site_fract_z
  _atom_site_occupancy
  C   C1        1.0  0.22918  0.06826  0.01196  1.0000
  O   O1        1.0  0.20851  0.02728  0.02386  1.0000
  C   C2        1.0  0.20698  0.99458  0.99199  1.0000
  C   C3        1.0  0.22932  0.99637  0.95109  1.0000
  C   C4        1.0  0.22567  0.96141  0.92054  1.0000
  C   C5        1.0  0.19951  0.92447  0.93050  1.0000
  C   C6        1.0  0.17721  0.92223  0.97118  1.0000
  C   C7        1.0  0.18104  0.95694  0.00248  1.0000
  C   C8        1.0  0.15567  0.95358  0.04602  1.0000
  C   C9        1.0  0.10838  0.96886  0.04196  1.0000
  N   N1        1.0  0.07486  0.94331  0.02941  1.0000
  N   N2        1.0  0.03499  0.96623  0.02864  1.0000
  C   C10       1.0  0.03973  0.00814  0.04072  1.0000
  S   S1        1.0  0.99524  0.04558  0.04317  1.0000
  C   C11       1.0  0.95449  0.01767  0.00747  1.0000
  C   C12       1.0  0.96610  0.02457  0.95841  1.0000
  C   C13       1.0  0.90743  0.03537  0.01661  1.0000
  O   O2        1.0  0.89896  0.07081  0.03527  1.0000
  N   N3        1.0  0.87423  0.00780  0.00081  1.0000
  C   C14       1.0  0.82797  0.01824  0.00593  1.0000
  C   C15       1.0  0.81130  0.00984  0.05347  1.0000
  C   C16       1.0  0.76190  0.99724  0.05445  1.0000
  C   C17       1.0  0.73762  0.01629  0.01421  1.0000
  C   C18       1.0  0.75962  0.00142  0.97069  1.0000
  O   O3        1.0  0.80548  0.98951  0.97582  1.0000
  S   S2        1.0  0.09316  0.02270  0.05456  1.0000
  H   H1        1.0  0.21321  0.08314  0.98270  1.0000
  H   H2        1.0  0.22492  0.09136  0.03982  1.0000
  H   H3        1.0  0.26502  0.06379  0.00669  1.0000
  H   H4        1.0  0.24989  0.02463  0.94187  1.0000
  H   H5        1.0  0.24312  0.96322  0.88883  1.0000
  H   H6        1.0  0.19640  0.89744  0.90658  1.0000
  H   H7        1.0  0.15647  0.89329  0.97842  1.0000
  H   H8        1.0  0.15579  0.91864  0.05696  1.0000
  H   H9        1.0  0.17308  0.97162  0.07262  1.0000
  H   H10       1.0  0.95413  0.98201  0.01549  1.0000
  H   H11       1.0  0.99917  0.01141  0.95025  1.0000
  H   H12       1.0  0.94205  0.00747  0.93685  1.0000
  H   H13       1.0  0.96521  0.05993  0.94926  1.0000
  H   H14       1.0  0.88113  0.97856  0.98565  1.0000
  H   H15       1.0  0.82281  0.05312  0.99608  1.0000
  H   H16       1.0  0.83027  0.98300  0.06948  1.0000
  H   H17       1.0  0.81724  0.03971  0.07367  1.0000
  H   H18       1.0  0.75873  0.96077  0.05409  1.0000
  H   H19       1.0  0.74658  0.00879  0.08553  1.0000
  H   H20       1.0  0.70235  0.00691  0.01430  1.0000
  H   H21       1.0  0.73847  0.05284  0.01627  1.0000
  H   H22       1.0  0.74252  0.97199  0.95751  1.0000
  H   H23       1.0  0.75689  0.02764  0.94539  1.0000
