data_image0
_chemical_formula_structural       COC5NC8NOC2OCH22
_chemical_formula_sum              "C17 O3 N2 H22"
_cell_length_a       30
_cell_length_b       30
_cell_length_c       30
_cell_angle_alpha    90
_cell_angle_beta     90
_cell_angle_gamma    90

_space_group_name_H-M_alt    "P 1"
_space_group_IT_number       1

loop_
  _space_group_symop_operation_xyz
  'x, y, z'

loop_
  _atom_site_type_symbol
  _atom_site_label
  _atom_site_symmetry_multiplicity
  _atom_site_fract_x
  _atom_site_fract_y
  _atom_site_fract_z
  _atom_site_occupancy
  C   C1        1.0  0.20612  0.04270  0.92205  1.0000
  O   O1        1.0  0.19850  0.00850  0.95389  1.0000
  C   C2        1.0  0.15565  0.00243  0.96874  1.0000
  C   C3        1.0  0.11910  0.02761  0.95467  1.0000
  C   C4        1.0  0.07661  0.01893  0.97174  1.0000
  C   C5        1.0  0.06977  0.98503  0.00311  1.0000
  C   C6        1.0  0.02492  0.97701  0.02011  1.0000
  N   N1        1.0  0.98725  0.99736  0.01055  1.0000
  C   C7        1.0  0.95722  0.97503  0.03683  1.0000
  C   C8        1.0  0.90875  0.98642  0.03767  1.0000
  C   C9        1.0  0.88717  0.98071  0.98834  1.0000
  C   C10       1.0  0.83505  0.98800  0.98001  1.0000
  C   C11       1.0  0.81423  0.03713  0.97671  1.0000
  C   C12       1.0  0.82139  0.06935  0.01804  1.0000
  C   C13       1.0  0.86139  0.04892  0.03770  1.0000
  C   C14       1.0  0.90133  0.03359  0.06163  1.0000
  N   N2        1.0  0.97461  0.94237  0.06179  1.0000
  O   O2        1.0  0.01980  0.94358  0.05070  1.0000
  C   C15       1.0  0.10659  0.95979  0.01717  1.0000
  C   C16       1.0  0.14935  0.96820  0.00029  1.0000
  O   O3        1.0  0.18692  0.94499  0.01239  1.0000
  C   C17       1.0  0.18222  0.91022  0.04417  1.0000
  H   H1        1.0  0.24172  0.04277  0.91408  1.0000
  H   H2        1.0  0.18787  0.03620  0.89112  1.0000
  H   H3        1.0  0.19777  0.07550  0.93569  1.0000
  H   H4        1.0  0.12242  0.05427  0.93046  1.0000
  H   H5        1.0  0.04859  0.03901  0.96027  1.0000
  H   H6        1.0  0.89158  0.96154  0.05846  1.0000
  H   H7        1.0  0.90562  0.00152  0.96452  1.0000
  H   H8        1.0  0.89415  0.94614  0.97834  1.0000
  H   H9        1.0  0.81646  0.96889  0.00505  1.0000
  H   H10       1.0  0.82758  0.97208  0.94789  1.0000
  H   H11       1.0  0.82906  0.05311  0.94730  1.0000
  H   H12       1.0  0.77840  0.03442  0.97004  1.0000
  H   H13       1.0  0.82617  0.10381  0.00706  1.0000
  H   H14       1.0  0.79255  0.06828  0.04041  1.0000
  H   H15       1.0  0.84237  0.01955  0.04838  1.0000
  H   H16       1.0  0.88051  0.05380  0.00689  1.0000
  H   H17       1.0  0.92980  0.05607  0.05715  1.0000
  H   H18       1.0  0.89611  0.02911  0.09750  1.0000
  H   H19       1.0  0.10138  0.93350  0.04147  1.0000
  H   H20       1.0  0.16042  0.88377  0.03162  1.0000
  H   H21       1.0  0.21520  0.89565  0.04972  1.0000
  H   H22       1.0  0.17030  0.92313  0.07616  1.0000
