data_image0
_chemical_formula_structural       COC3FC3NCONC2OC8H23
_chemical_formula_sum              "C18 O3 F1 N2 H23"
_cell_length_a       30
_cell_length_b       30
_cell_length_c       30
_cell_angle_alpha    90
_cell_angle_beta     90
_cell_angle_gamma    90

_space_group_name_H-M_alt    "P 1"
_space_group_IT_number       1

loop_
  _space_group_symop_operation_xyz
  'x, y, z'

loop_
  _atom_site_type_symbol
  _atom_site_label
  _atom_site_symmetry_multiplicity
  _atom_site_fract_x
  _atom_site_fract_y
  _atom_site_fract_z
  _atom_site_occupancy
  C   C1        1.0  0.17632  0.98427  0.90904  1.0000
  O   O1        1.0  0.14967  0.96507  0.94335  1.0000
  C   C2        1.0  0.14899  0.98966  0.98235  1.0000
  C   C3        1.0  0.15382  0.96873  0.02155  1.0000
  C   C4        1.0  0.15185  0.99260  0.06297  1.0000
  F   F1        1.0  0.16289  0.97053  0.10050  1.0000
  C   C5        1.0  0.13767  0.03480  0.06531  1.0000
  C   C6        1.0  0.12368  0.06058  0.02423  1.0000
  C   C7        1.0  0.07287  0.06825  0.02392  1.0000
  N   N1        1.0  0.04719  0.02774  0.01803  1.0000
  C   C8        1.0  0.00221  0.03016  0.01026  1.0000
  O   O2        1.0  0.98165  0.06491  0.00482  1.0000
  N   N2        1.0  0.98372  0.98835  0.00950  1.0000
  C   C9        1.0  0.93675  0.98216  0.99712  1.0000
  C   C10       1.0  0.92859  0.93227  0.98799  1.0000
  O   O3        1.0  0.96148  0.91608  0.95743  1.0000
  C   C11       1.0  0.90496  0.99974  0.03357  1.0000
  C   C12       1.0  0.85635  0.99793  0.02053  1.0000
  C   C13       1.0  0.83970  0.02684  0.98781  1.0000
  C   C14       1.0  0.79494  0.02503  0.97532  1.0000
  C   C15       1.0  0.76639  0.99441  0.99547  1.0000
  C   C16       1.0  0.78255  0.96568  0.02820  1.0000
  C   C17       1.0  0.82732  0.96743  0.04075  1.0000
  C   C18       1.0  0.14012  0.03929  0.97992  1.0000
  H   H1        1.0  0.18004  0.95950  0.88254  1.0000
  H   H2        1.0  0.16003  0.01362  0.89477  1.0000
  H   H3        1.0  0.20961  0.99279  0.92140  1.0000
  H   H4        1.0  0.15947  0.93305  0.02306  1.0000
  H   H5        1.0  0.13562  0.05111  0.09754  1.0000
  H   H6        1.0  0.13923  0.09365  0.02659  1.0000
  H   H7        1.0  0.06199  0.08364  0.05526  1.0000
  H   H8        1.0  0.06400  0.09142  0.99706  1.0000
  H   H9        1.0  0.05620  0.00097  0.03641  1.0000
  H   H10       1.0  0.00404  0.96597  0.99431  1.0000
  H   H11       1.0  0.93198  0.00065  0.96590  1.0000
  H   H12       1.0  0.93144  0.91267  0.01866  1.0000
  H   H13       1.0  0.89570  0.92670  0.97324  1.0000
  H   H14       1.0  0.95320  0.88558  0.95012  1.0000
  H   H15       1.0  0.91280  0.03441  0.04212  1.0000
  H   H16       1.0  0.91031  0.98094  0.06452  1.0000
  H   H17       1.0  0.86159  0.05112  0.97203  1.0000
  H   H18       1.0  0.78234  0.04763  0.94997  1.0000
  H   H19       1.0  0.73151  0.99311  0.98579  1.0000
  H   H20       1.0  0.76022  0.94198  0.04407  1.0000
  H   H21       1.0  0.83931  0.94489  0.06649  1.0000
  H   H22       1.0  0.11623  0.04642  0.95318  1.0000
  H   H23       1.0  0.17146  0.05565  0.97042  1.0000
