data_image0
_chemical_formula_structural       COC3O2C5NC13H25
_chemical_formula_sum              "C22 O3 N1 H25"
_cell_length_a       30
_cell_length_b       30
_cell_length_c       30
_cell_angle_alpha    90
_cell_angle_beta     90
_cell_angle_gamma    90

_space_group_name_H-M_alt    "P 1"
_space_group_IT_number       1

loop_
  _space_group_symop_operation_xyz
  'x, y, z'

loop_
  _atom_site_type_symbol
  _atom_site_label
  _atom_site_symmetry_multiplicity
  _atom_site_fract_x
  _atom_site_fract_y
  _atom_site_fract_z
  _atom_site_occupancy
  C   C1        1.0  0.84785  0.06113  0.02270  1.0000
  O   O1        1.0  0.87483  0.02681  0.04174  1.0000
  C   C2        1.0  0.87725  0.99065  0.01382  1.0000
  C   C3        1.0  0.84467  0.95687  0.01494  1.0000
  C   C4        1.0  0.80664  0.95857  0.04699  1.0000
  O   O2        1.0  0.79783  0.98731  0.07417  1.0000
  O   O3        1.0  0.77969  0.92271  0.04337  1.0000
  C   C5        1.0  0.84864  0.92057  0.98559  1.0000
  C   C6        1.0  0.88464  0.91745  0.95635  1.0000
  C   C7        1.0  0.91753  0.95018  0.95656  1.0000
  C   C8        1.0  0.91467  0.98693  0.98552  1.0000
  C   C9        1.0  0.95253  0.02044  0.98632  1.0000
  N   N1        1.0  0.98446  0.01245  0.02239  1.0000
  C   C10       1.0  0.01166  0.97237  0.01629  1.0000
  C   C11       1.0  0.05101  0.97922  0.04781  1.0000
  C   C12       1.0  0.05053  0.02902  0.05899  1.0000
  C   C13       1.0  0.09599  0.05175  0.05957  1.0000
  C   C14       1.0  0.12090  0.05313  0.01385  1.0000
  C   C15       1.0  0.12344  0.08443  0.98057  1.0000
  C   C16       1.0  0.14737  0.05329  0.95418  1.0000
  C   C17       1.0  0.14567  0.03347  0.91439  1.0000
  C   C18       1.0  0.15068  0.98640  0.92648  1.0000
  C   C19       1.0  0.14757  0.95063  0.89234  1.0000
  C   C20       1.0  0.15416  0.98133  0.97133  1.0000
  C   C21       1.0  0.15910  0.02541  0.99418  1.0000
  C   C22       1.0  0.01677  0.04887  0.02654  1.0000
  H   H1        1.0  0.81411  0.04952  0.01506  1.0000
  H   H2        1.0  0.86327  0.07463  0.99249  1.0000
  H   H3        1.0  0.84528  0.08811  0.04709  1.0000
  H   H4        1.0  0.75714  0.92814  0.06641  1.0000
  H   H5        1.0  0.82389  0.89408  0.98542  1.0000
  H   H6        1.0  0.88740  0.88907  0.93396  1.0000
  H   H7        1.0  0.94601  0.94670  0.93435  1.0000
  H   H8        1.0  0.96932  0.02081  0.95375  1.0000
  H   H9        1.0  0.93819  0.05388  0.98987  1.0000
  H   H10       1.0  0.99345  0.94188  0.02462  1.0000
  H   H11       1.0  0.02405  0.96953  0.98198  1.0000
  H   H12       1.0  0.08202  0.96811  0.03229  1.0000
  H   H13       1.0  0.04658  0.95973  0.07841  1.0000
  H   H14       1.0  0.03670  0.03222  0.09282  1.0000
  H   H15       1.0  0.11759  0.03486  0.08374  1.0000
  H   H16       1.0  0.09200  0.08612  0.07141  1.0000
  H   H17       1.0  0.10685  0.11587  0.97387  1.0000
  H   H18       1.0  0.12761  0.04548  0.88568  1.0000
  H   H19       1.0  0.14923  0.91750  0.90759  1.0000
  H   H20       1.0  0.17505  0.95334  0.86850  1.0000
  H   H21       1.0  0.11608  0.95293  0.87402  1.0000
  H   H22       1.0  0.15680  0.94990  0.98869  1.0000
  H   H23       1.0  0.19221  0.03024  0.00885  1.0000
  H   H24       1.0  0.00145  0.07906  0.04019  1.0000
  H   H25       1.0  0.03166  0.05691  0.99417  1.0000
