data_image0
_chemical_formula_structural       COC8ONC6OCH25
_chemical_formula_sum              "C16 O3 N1 H25"
_cell_length_a       30
_cell_length_b       30
_cell_length_c       30
_cell_angle_alpha    90
_cell_angle_beta     90
_cell_angle_gamma    90

_space_group_name_H-M_alt    "P 1"
_space_group_IT_number       1

loop_
  _space_group_symop_operation_xyz
  'x, y, z'

loop_
  _atom_site_type_symbol
  _atom_site_label
  _atom_site_symmetry_multiplicity
  _atom_site_fract_x
  _atom_site_fract_y
  _atom_site_fract_z
  _atom_site_occupancy
  C   C1        1.0  0.19017  0.06987  0.02270  1.0000
  O   O1        1.0  0.18270  0.02977  0.99830  1.0000
  C   C2        1.0  0.13893  0.01557  0.00051  1.0000
  C   C3        1.0  0.12963  0.97336  0.01174  1.0000
  C   C4        1.0  0.08423  0.95744  0.01423  1.0000
  C   C5        1.0  0.05005  0.97931  0.99468  1.0000
  C   C6        1.0  1.00000  0.96482  0.99700  1.0000
  C   C7        1.0  0.99486  0.91889  0.01973  1.0000
  C   C8        1.0  0.98306  0.96174  0.94868  1.0000
  C   C9        1.0  0.97516  0.00049  0.02662  1.0000
  O   O2        1.0  0.99744  0.02951  0.04598  1.0000
  N   N1        1.0  0.92925  0.99949  0.03391  1.0000
  C   C10       1.0  0.91123  0.03362  0.06360  1.0000
  C   C11       1.0  0.89579  0.97502  0.00846  1.0000
  C   C12       1.0  0.87681  0.00342  0.97195  1.0000
  C   C13       1.0  0.83346  0.02813  0.97831  1.0000
  C   C14       1.0  0.83540  0.98856  0.94765  1.0000
  C   C15       1.0  0.06031  0.02257  0.96983  1.0000
  O   O3        1.0  0.06593  0.01169  0.92366  1.0000
  C   C16       1.0  0.10232  0.04721  0.98660  1.0000
  H   H1        1.0  0.17505  0.09846  0.00583  1.0000
  H   H2        1.0  0.22616  0.07551  0.02426  1.0000
  H   H3        1.0  0.17758  0.06705  0.05687  1.0000
  H   H4        1.0  0.15618  0.95047  0.02074  1.0000
  H   H5        1.0  0.07967  0.92684  0.03297  1.0000
  H   H6        1.0  0.96046  0.90697  0.01997  1.0000
  H   H7        1.0  0.00533  0.92013  0.05473  1.0000
  H   H8        1.0  0.01456  0.89329  0.00265  1.0000
  H   H9        1.0  0.95314  0.94134  0.94508  1.0000
  H   H10       1.0  0.00784  0.94583  0.92697  1.0000
  H   H11       1.0  0.97552  0.99471  0.93496  1.0000
  H   H12       1.0  0.93506  0.04273  0.08965  1.0000
  H   H13       1.0  0.88108  0.02117  0.07992  1.0000
  H   H14       1.0  0.90329  0.06333  0.04399  1.0000
  H   H15       1.0  0.86969  0.96421  0.03169  1.0000
  H   H16       1.0  0.90937  0.94462  0.99440  1.0000
  H   H17       1.0  0.90242  0.01949  0.95216  1.0000
  H   H18       1.0  0.83052  0.06097  0.96347  1.0000
  H   H19       1.0  0.81561  0.02445  0.00951  1.0000
  H   H20       1.0  0.81888  0.95820  0.95822  1.0000
  H   H21       1.0  0.83360  0.99467  0.91206  1.0000
  H   H22       1.0  0.03234  0.04592  0.97144  1.0000
  H   H23       1.0  0.09174  0.99203  0.92224  1.0000
  H   H24       1.0  0.11461  0.06917  0.96008  1.0000
  H   H25       1.0  0.09354  0.06795  0.01542  1.0000
