data_image0
_chemical_formula_structural       COC5OC4OC2NCNC4H18
_chemical_formula_sum              "C17 O3 N2 H18"
_cell_length_a       30
_cell_length_b       30
_cell_length_c       30
_cell_angle_alpha    90
_cell_angle_beta     90
_cell_angle_gamma    90

_space_group_name_H-M_alt    "P 1"
_space_group_IT_number       1

loop_
  _space_group_symop_operation_xyz
  'x, y, z'

loop_
  _atom_site_type_symbol
  _atom_site_label
  _atom_site_symmetry_multiplicity
  _atom_site_fract_x
  _atom_site_fract_y
  _atom_site_fract_z
  _atom_site_occupancy
  C   C1        1.0  0.06419  0.92432  0.93796  1.0000
  O   O1        1.0  0.05655  0.93110  0.98456  1.0000
  C   C2        1.0  0.02533  0.96437  0.99058  1.0000
  C   C3        1.0  0.98124  0.95192  0.00131  1.0000
  C   C4        1.0  0.96900  0.90453  0.00526  1.0000
  C   C5        1.0  0.92664  0.89108  0.00843  1.0000
  C   C6        1.0  0.88945  0.92327  0.01066  1.0000
  O   O2        1.0  0.85085  0.90993  0.00864  1.0000
  C   C7        1.0  0.90200  0.97145  0.01700  1.0000
  C   C8        1.0  0.86798  0.99562  0.03375  1.0000
  C   C9        1.0  0.86868  0.04248  0.04953  1.0000
  C   C10       1.0  0.82742  0.06983  0.04142  1.0000
  O   O3        1.0  0.90087  0.05758  0.06973  1.0000
  C   C11       1.0  0.94846  0.98491  0.00667  1.0000
  C   C12       1.0  0.96219  0.02831  0.99830  1.0000
  N   N1        1.0  0.00448  0.04089  0.98828  1.0000
  C   C13       1.0  0.03675  0.00964  0.98630  1.0000
  N   N2        1.0  0.08026  0.02378  0.97850  1.0000
  C   C14       1.0  0.08748  0.07174  0.97315  1.0000
  C   C15       1.0  0.13778  0.07632  0.97855  1.0000
  C   C16       1.0  0.14738  0.04338  0.01578  1.0000
  C   C17       1.0  0.11597  0.00442  0.00583  1.0000
  H   H1        1.0  0.08115  0.95278  0.92270  1.0000
  H   H2        1.0  0.08591  0.89523  0.93448  1.0000
  H   H3        1.0  0.03302  0.91723  0.92027  1.0000
  H   H4        1.0  0.99555  0.87993  0.00424  1.0000
  H   H5        1.0  0.91768  0.85612  0.00979  1.0000
  H   H6        1.0  0.83535  0.98043  0.03849  1.0000
  H   H7        1.0  0.80663  0.05474  0.01555  1.0000
  H   H8        1.0  0.83715  0.10307  0.03005  1.0000
  H   H9        1.0  0.80829  0.07229  0.07232  1.0000
  H   H10       1.0  0.93923  0.05624  0.99868  1.0000
  H   H11       1.0  0.07083  0.09111  0.99935  1.0000
  H   H12       1.0  0.07642  0.08357  0.94044  1.0000
  H   H13       1.0  0.14797  0.11034  0.98673  1.0000
  H   H14       1.0  0.15490  0.06608  0.94792  1.0000
  H   H15       1.0  0.13884  0.05826  0.04807  1.0000
  H   H16       1.0  0.18234  0.03312  0.01699  1.0000
  H   H17       1.0  0.10421  0.98973  0.03716  1.0000
  H   H18       1.0  0.13358  0.97887  0.98660  1.0000
