data_image0
_chemical_formula_structural       COC6NCOCNC2N2CNC3H21
_chemical_formula_sum              "C15 O2 N5 H21"
_cell_length_a       30
_cell_length_b       30
_cell_length_c       30
_cell_angle_alpha    90
_cell_angle_beta     90
_cell_angle_gamma    90

_space_group_name_H-M_alt    "P 1"
_space_group_IT_number       1

loop_
  _space_group_symop_operation_xyz
  'x, y, z'

loop_
  _atom_site_type_symbol
  _atom_site_label
  _atom_site_symmetry_multiplicity
  _atom_site_fract_x
  _atom_site_fract_y
  _atom_site_fract_z
  _atom_site_occupancy
  C   C1        1.0  0.12739  0.04068  0.92969  1.0000
  O   O1        1.0  0.10224  0.02986  0.96857  1.0000
  C   C2        1.0  0.12346  0.00611  0.00151  1.0000
  C   C3        1.0  0.16668  0.98897  0.99844  1.0000
  C   C4        1.0  0.18472  0.96474  0.03391  1.0000
  C   C5        1.0  0.15986  0.95778  0.07251  1.0000
  C   C6        1.0  0.11669  0.97489  0.07594  1.0000
  C   C7        1.0  0.09816  0.99885  0.04053  1.0000
  N   N1        1.0  0.05479  0.01687  0.04143  1.0000
  C   C8        1.0  0.02150  0.01048  0.07246  1.0000
  O   O2        1.0  0.02355  0.98780  0.10646  1.0000
  C   C9        1.0  0.97908  0.03676  0.06129  1.0000
  N   N2        1.0  0.97009  0.03892  0.01299  1.0000
  C   C10       1.0  0.95921  0.99481  0.99443  1.0000
  C   C11       1.0  0.94027  0.99868  0.94850  1.0000
  N   N3        1.0  0.96393  0.00549  0.91181  1.0000
  N   N4        1.0  0.93559  0.00563  0.87593  1.0000
  C   C12       1.0  0.89520  0.99865  0.89111  1.0000
  N   N5        1.0  0.89607  0.99518  0.93664  1.0000
  C   C13       1.0  0.85644  0.98830  0.96367  1.0000
  C   C14       1.0  0.85036  0.02372  0.99983  1.0000
  C   C15       1.0  0.85301  0.94095  0.98235  1.0000
  H   H1        1.0  0.15737  0.06001  0.93825  1.0000
  H   H2        1.0  0.10643  0.06166  0.90815  1.0000
  H   H3        1.0  0.13591  0.01050  0.91083  1.0000
  H   H4        1.0  0.18709  0.99370  0.96891  1.0000
  H   H5        1.0  0.21827  0.95125  0.03142  1.0000
  H   H6        1.0  0.17394  0.93874  0.10004  1.0000
  H   H7        1.0  0.09839  0.96920  0.10663  1.0000
  H   H8        1.0  0.04550  0.03318  0.01311  1.0000
  H   H9        1.0  0.95063  0.02234  0.07919  1.0000
  H   H10       1.0  0.98403  0.07074  0.07389  1.0000
  H   H11       1.0  0.94395  0.06003  0.00782  1.0000
  H   H12       1.0  0.98954  0.97453  0.99214  1.0000
  H   H13       1.0  0.93625  0.97689  0.01628  1.0000
  H   H14       1.0  0.86530  0.99626  0.87116  1.0000
  H   H15       1.0  0.82819  0.99240  0.94064  1.0000
  H   H16       1.0  0.87347  0.01919  0.02772  1.0000
  H   H17       1.0  0.81660  0.02208  0.01361  1.0000
  H   H18       1.0  0.85537  0.05732  0.98632  1.0000
  H   H19       1.0  0.87960  0.93334  0.00616  1.0000
  H   H20       1.0  0.85470  0.91610  0.95551  1.0000
  H   H21       1.0  0.82117  0.93643  0.99982  1.0000
