data_image0
_chemical_formula_structural       COC6NC3NCN2C4H20
_chemical_formula_sum              "C15 O1 N4 H20"
_cell_length_a       30
_cell_length_b       30
_cell_length_c       30
_cell_angle_alpha    90
_cell_angle_beta     90
_cell_angle_gamma    90

_space_group_name_H-M_alt    "P 1"
_space_group_IT_number       1

loop_
  _space_group_symop_operation_xyz
  'x, y, z'

loop_
  _atom_site_type_symbol
  _atom_site_label
  _atom_site_symmetry_multiplicity
  _atom_site_fract_x
  _atom_site_fract_y
  _atom_site_fract_z
  _atom_site_occupancy
  C   C1        1.0  0.80828  0.07813  0.01943  1.0000
  O   O1        1.0  0.83702  0.07513  0.98186  1.0000
  C   C2        1.0  0.86773  0.04146  0.98204  1.0000
  C   C3        1.0  0.87375  0.01002  0.01570  1.0000
  C   C4        1.0  0.90666  0.97711  0.01166  1.0000
  C   C5        1.0  0.93409  0.97492  0.97386  1.0000
  C   C6        1.0  0.97076  0.94026  0.96827  1.0000
  C   C7        1.0  0.96303  0.89601  0.99273  1.0000
  N   N1        1.0  0.01546  0.95865  0.97673  1.0000
  C   C8        1.0  0.02398  0.97158  0.02294  1.0000
  C   C9        1.0  0.07010  0.99081  0.02782  1.0000
  C   C10       1.0  0.07669  0.03432  0.04222  1.0000
  N   N2        1.0  0.11717  0.05350  0.04775  1.0000
  C   C11       1.0  0.15349  0.02869  0.03846  1.0000
  N   N3        1.0  0.19519  0.04960  0.04486  1.0000
  N   N4        1.0  0.22890  0.04431  0.01234  1.0000
  C   C12       1.0  0.15018  0.98467  0.02416  1.0000
  C   C13       1.0  0.10814  0.96565  0.01876  1.0000
  C   C14       1.0  0.92776  0.00692  0.94028  1.0000
  C   C15       1.0  0.89492  0.03970  0.94438  1.0000
  H   H1        1.0  0.82719  0.08461  0.04997  1.0000
  H   H2        1.0  0.78775  0.04813  0.02273  1.0000
  H   H3        1.0  0.78585  0.10639  0.01407  1.0000
  H   H4        1.0  0.85348  0.01011  0.04565  1.0000
  H   H5        1.0  0.91047  0.95343  0.03881  1.0000
  H   H6        1.0  0.97048  0.93115  0.93277  1.0000
  H   H7        1.0  0.93112  0.88127  0.98277  1.0000
  H   H8        1.0  0.98928  0.87200  0.98441  1.0000
  H   H9        1.0  0.96252  0.89965  0.02902  1.0000
  H   H10       1.0  0.01971  0.98601  0.95702  1.0000
  H   H11       1.0  0.99952  0.99620  0.03433  1.0000
  H   H12       1.0  0.02172  0.94285  0.04537  1.0000
  H   H13       1.0  0.04872  0.05599  0.05007  1.0000
  H   H14       1.0  0.18775  0.08191  0.05319  1.0000
  H   H15       1.0  0.24112  0.01255  0.01295  1.0000
  H   H16       1.0  0.21619  0.04938  0.98109  1.0000
  H   H17       1.0  0.17977  0.96501  0.01771  1.0000
  H   H18       1.0  0.10511  0.93133  0.00751  1.0000
  H   H19       1.0  0.94839  0.00651  0.91045  1.0000
  H   H20       1.0  0.89053  0.06409  0.91794  1.0000
