data_image0
_chemical_formula_structural       COC14ONCSC3OH25
_chemical_formula_sum              "C19 O3 N1 S1 H25"
_cell_length_a       30
_cell_length_b       30
_cell_length_c       30
_cell_angle_alpha    90
_cell_angle_beta     90
_cell_angle_gamma    90

_space_group_name_H-M_alt    "P 1"
_space_group_IT_number       1

loop_
  _space_group_symop_operation_xyz
  'x, y, z'

loop_
  _atom_site_type_symbol
  _atom_site_label
  _atom_site_symmetry_multiplicity
  _atom_site_fract_x
  _atom_site_fract_y
  _atom_site_fract_z
  _atom_site_occupancy
  C   C1        1.0  0.99697  0.09582  0.89854  1.0000
  O   O1        1.0  0.99755  0.06033  0.92986  1.0000
  C   C2        1.0  0.95710  0.04423  0.94432  1.0000
  C   C3        1.0  0.91555  0.06001  0.92935  1.0000
  C   C4        1.0  0.87582  0.04169  0.94530  1.0000
  C   C5        1.0  0.87807  0.00723  0.97582  1.0000
  C   C6        1.0  0.83995  0.98353  0.99758  1.0000
  C   C7        1.0  0.86281  0.94113  0.01640  1.0000
  C   C8        1.0  0.86034  0.90286  0.98221  1.0000
  C   C9        1.0  0.84042  0.92601  0.05972  1.0000
  C   C10       1.0  0.91206  0.95465  0.02468  1.0000
  C   C11       1.0  0.91904  0.99125  0.99122  1.0000
  C   C12       1.0  0.95898  0.00970  0.97631  1.0000
  C   C13       1.0  0.00215  0.99411  0.99336  1.0000
  C   C14       1.0  0.01487  0.00284  0.03532  1.0000
  C   C15       1.0  0.05820  0.98999  0.05527  1.0000
  O   O2        1.0  0.06232  0.98864  0.09582  1.0000
  N   N1        1.0  0.09228  0.98232  0.02610  1.0000
  C   C16       1.0  0.13673  0.97613  0.04245  1.0000
  S   S1        1.0  0.17373  0.96644  0.99594  1.0000
  C   C17       1.0  0.18222  0.02319  0.97797  1.0000
  C   C18       1.0  0.22041  0.04665  0.99971  1.0000
  C   C19       1.0  0.23888  0.03813  0.04593  1.0000
  O   O3        1.0  0.20704  0.07258  0.03769  1.0000
  H   H1        1.0  0.98209  0.12581  0.91298  1.0000
  H   H2        1.0  0.03155  0.10357  0.89000  1.0000
  H   H3        1.0  0.98001  0.08612  0.86778  1.0000
  H   H4        1.0  0.91300  0.08683  0.90525  1.0000
  H   H5        1.0  0.84391  0.05432  0.93381  1.0000
  H   H6        1.0  0.82652  0.00461  0.02411  1.0000
  H   H7        1.0  0.81348  0.97568  0.97380  1.0000
  H   H8        1.0  0.82565  0.89383  0.97523  1.0000
  H   H9        1.0  0.87729  0.87297  0.99466  1.0000
  H   H10       1.0  0.87592  0.91201  0.95054  1.0000
  H   H11       1.0  0.85712  0.89657  0.07349  1.0000
  H   H12       1.0  0.84147  0.95227  0.08513  1.0000
  H   H13       1.0  0.80530  0.91749  0.05406  1.0000
  H   H14       1.0  0.91683  0.96805  0.05830  1.0000
  H   H15       1.0  0.93487  0.92668  0.01941  1.0000
  H   H16       1.0  0.02300  0.97688  0.96934  1.0000
  H   H17       1.0  0.99258  0.01949  0.05855  1.0000
  H   H18       1.0  0.08870  0.99037  0.99369  1.0000
  H   H19       1.0  0.14671  0.00539  0.06195  1.0000
  H   H20       1.0  0.13709  0.94721  0.06466  1.0000
  H   H21       1.0  0.18918  0.02132  0.94230  1.0000
  H   H22       1.0  0.15134  0.04256  0.98087  1.0000
  H   H23       1.0  0.24173  0.06317  0.97573  1.0000
  H   H24       1.0  0.22833  0.00941  0.06496  1.0000
  H   H25       1.0  0.27284  0.04796  0.05257  1.0000
