data_image0
_chemical_formula_structural       COC6NCOCONC2SC9H26
_chemical_formula_sum              "C20 O3 N2 S1 H26"
_cell_length_a       30
_cell_length_b       30
_cell_length_c       30
_cell_angle_alpha    90
_cell_angle_beta     90
_cell_angle_gamma    90

_space_group_name_H-M_alt    "P 1"
_space_group_IT_number       1

loop_
  _space_group_symop_operation_xyz
  'x, y, z'

loop_
  _atom_site_type_symbol
  _atom_site_label
  _atom_site_symmetry_multiplicity
  _atom_site_fract_x
  _atom_site_fract_y
  _atom_site_fract_z
  _atom_site_occupancy
  C   C1        1.0  0.86611  0.02895  0.88725  1.0000
  O   O1        1.0  0.88840  0.01644  0.92723  1.0000
  C   C2        1.0  0.86624  0.02388  0.96663  1.0000
  C   C3        1.0  0.82468  0.04463  0.97043  1.0000
  C   C4        1.0  0.80533  0.05062  0.01237  1.0000
  C   C5        1.0  0.82735  0.03604  0.05056  1.0000
  C   C6        1.0  0.86888  0.01532  0.04714  1.0000
  C   C7        1.0  0.88858  0.00915  0.00538  1.0000
  N   N1        1.0  0.93046  0.98877  0.99933  1.0000
  C   C8        1.0  0.95983  0.97408  0.03137  1.0000
  O   O2        1.0  0.95586  0.97456  0.07196  1.0000
  C   C9        1.0  0.00297  0.95579  0.01070  1.0000
  O   O3        1.0  0.00050  0.92118  0.98903  1.0000
  N   N2        1.0  0.04198  0.98051  0.01645  1.0000
  C   C10       1.0  0.08338  0.96256  0.99834  1.0000
  C   C11       1.0  0.10732  0.93256  0.03164  1.0000
  S   S1        1.0  0.15730  0.91074  0.00861  1.0000
  C   C12       1.0  0.18954  0.89157  0.05406  1.0000
  C   C13       1.0  0.14207  0.86278  0.97799  1.0000
  C   C14       1.0  0.04428  0.02111  0.04338  1.0000
  C   C15       1.0  0.02654  0.06138  0.01887  1.0000
  C   C16       1.0  0.04852  0.07799  0.98111  1.0000
  C   C17       1.0  0.03168  0.11477  0.95816  1.0000
  C   C18       1.0  0.99271  0.13543  0.97272  1.0000
  C   C19       1.0  0.97070  0.11951  0.01039  1.0000
  C   C20       1.0  0.98765  0.08290  0.03351  1.0000
  H   H1        1.0  0.83482  0.01052  0.88327  1.0000
  H   H2        1.0  0.88779  0.02017  0.85924  1.0000
  H   H3        1.0  0.86049  0.06503  0.88594  1.0000
  H   H4        1.0  0.80655  0.05653  0.94159  1.0000
  H   H5        1.0  0.77298  0.06672  0.01523  1.0000
  H   H6        1.0  0.81217  0.04058  0.08320  1.0000
  H   H7        1.0  0.88492  0.00414  0.07756  1.0000
  H   H8        1.0  0.94018  0.98586  0.96702  1.0000
  H   H9        1.0  0.07596  0.94363  0.96798  1.0000
  H   H10       1.0  0.10489  0.99023  0.98816  1.0000
  H   H11       1.0  0.08647  0.90439  0.04184  1.0000
  H   H12       1.0  0.11653  0.95123  0.06162  1.0000
  H   H13       1.0  0.17933  0.94092  0.98345  1.0000
  H   H14       1.0  0.16918  0.86959  0.07460  1.0000
  H   H15       1.0  0.21837  0.87364  0.04097  1.0000
  H   H16       1.0  0.20041  0.92045  0.07332  1.0000
  H   H17       1.0  0.17236  0.84753  0.96480  1.0000
  H   H18       1.0  0.12479  0.83961  0.00009  1.0000
  H   H19       1.0  0.12033  0.87303  0.95070  1.0000
  H   H20       1.0  0.02615  0.01581  0.07465  1.0000
  H   H21       1.0  0.07904  0.02732  0.05295  1.0000
  H   H22       1.0  0.07894  0.06230  0.96919  1.0000
  H   H23       1.0  0.04896  0.12723  0.92879  1.0000
  H   H24       1.0  0.97947  0.16390  0.95469  1.0000
  H   H25       1.0  0.94020  0.13547  0.02169  1.0000
  H   H26       1.0  0.96988  0.07098  0.06286  1.0000
