data_image0
_chemical_formula_structural       COC8OC2OC12NC3OCH27
_chemical_formula_sum              "C27 O4 N1 H27"
_cell_length_a       30
_cell_length_b       30
_cell_length_c       30
_cell_angle_alpha    90
_cell_angle_beta     90
_cell_angle_gamma    90

_space_group_name_H-M_alt    "P 1"
_space_group_IT_number       1

loop_
  _space_group_symop_operation_xyz
  'x, y, z'

loop_
  _atom_site_type_symbol
  _atom_site_label
  _atom_site_symmetry_multiplicity
  _atom_site_fract_x
  _atom_site_fract_y
  _atom_site_fract_z
  _atom_site_occupancy
  C   C1        1.0  0.14430  0.97238  0.11405  1.0000
  O   O1        1.0  0.14321  0.00601  0.08074  1.0000
  C   C2        1.0  0.11411  0.00017  0.04607  1.0000
  C   C3        1.0  0.08198  0.96665  0.04331  1.0000
  C   C4        1.0  0.05349  0.96401  0.00636  1.0000
  C   C5        1.0  0.05682  0.99447  0.97102  1.0000
  C   C6        1.0  0.02558  0.99403  0.93076  1.0000
  C   C7        1.0  0.01677  0.94622  0.91282  1.0000
  C   C8        1.0  0.01831  0.94453  0.86189  1.0000
  C   C9        1.0  0.97068  0.93678  0.93004  1.0000
  O   O2        1.0  0.95301  0.89493  0.92728  1.0000
  C   C10       1.0  0.94968  0.97330  0.94499  1.0000
  C   C11       1.0  0.90219  0.97640  0.95779  1.0000
  O   O3        1.0  0.87974  0.00790  0.94416  1.0000
  C   C12       1.0  0.88169  0.94239  0.98752  1.0000
  C   C13       1.0  0.90655  0.91772  0.01847  1.0000
  C   C14       1.0  0.88537  0.88719  0.04655  1.0000
  C   C15       1.0  0.83936  0.88140  0.04418  1.0000
  C   C16       1.0  0.81433  0.90621  0.01388  1.0000
  C   C17       1.0  0.83535  0.93677  0.98579  1.0000
  C   C18       1.0  0.97802  0.01430  0.93897  1.0000
  C   C19       1.0  0.97651  0.05027  0.97429  1.0000
  C   C20       1.0  0.96747  0.04245  0.01930  1.0000
  C   C21       1.0  0.96901  0.07750  0.04976  1.0000
  C   C22       1.0  0.98008  0.11988  0.03471  1.0000
  C   C23       1.0  0.98241  0.15811  0.06677  1.0000
  N   N1        1.0  0.98934  0.12854  0.99151  1.0000
  C   C24       1.0  0.98705  0.09398  0.96261  1.0000
  C   C25       1.0  0.08934  0.02791  0.97389  1.0000
  C   C26       1.0  0.11689  0.03112  0.01130  1.0000
  O   O4        1.0  0.14816  0.06453  0.01252  1.0000
  C   C27       1.0  0.12796  0.10471  0.02832  1.0000
  H   H1        1.0  0.17089  0.98082  0.13761  1.0000
  H   H2        1.0  0.15218  0.93973  0.09965  1.0000
  H   H3        1.0  0.11289  0.97139  0.13264  1.0000
  H   H4        1.0  0.07785  0.94217  0.06957  1.0000
  H   H5        1.0  0.02849  0.93779  0.00608  1.0000
  H   H6        1.0  0.04199  0.01375  0.90456  1.0000
  H   H7        1.0  0.04077  0.92199  0.92591  1.0000
  H   H8        1.0  0.05145  0.95389  0.84980  1.0000
  H   H9        1.0  0.01114  0.91087  0.84972  1.0000
  H   H10       1.0  0.99403  0.96725  0.84676  1.0000
  H   H11       1.0  0.97414  0.87534  0.91230  1.0000
  H   H12       1.0  0.94236  0.92194  0.02127  1.0000
  H   H13       1.0  0.90476  0.86801  0.07038  1.0000
  H   H14       1.0  0.82295  0.85769  0.06606  1.0000
  H   H15       1.0  0.77835  0.90202  0.01221  1.0000
  H   H16       1.0  0.81546  0.95633  0.96261  1.0000
  H   H17       1.0  0.96661  0.02946  0.90753  1.0000
  H   H18       1.0  0.95982  0.00924  0.03149  1.0000
  H   H19       1.0  0.96203  0.07152  0.08478  1.0000
  H   H20       1.0  0.99105  0.18905  0.04950  1.0000
  H   H21       1.0  0.95009  0.16286  0.08313  1.0000
  H   H22       1.0  0.00782  0.15171  0.09215  1.0000
  H   H23       1.0  0.99473  0.10291  0.92835  1.0000
  H   H24       1.0  0.09318  0.05234  0.94742  1.0000
  H   H25       1.0  0.10436  0.11799  0.00374  1.0000
  H   H26       1.0  0.15448  0.12939  0.03290  1.0000
  H   H27       1.0  0.11136  0.09977  0.06046  1.0000
