data_image0
_chemical_formula_structural       COC4FC2NCONC4NCNC3N2H15
_chemical_formula_sum              "C16 O2 F1 N6 H15"
_cell_length_a       30
_cell_length_b       30
_cell_length_c       30
_cell_angle_alpha    90
_cell_angle_beta     90
_cell_angle_gamma    90

_space_group_name_H-M_alt    "P 1"
_space_group_IT_number       1

loop_
  _space_group_symop_operation_xyz
  'x, y, z'

loop_
  _atom_site_type_symbol
  _atom_site_label
  _atom_site_symmetry_multiplicity
  _atom_site_fract_x
  _atom_site_fract_y
  _atom_site_fract_z
  _atom_site_occupancy
  C   C1        1.0  0.12481  0.91269  0.09766  1.0000
  O   O1        1.0  0.10384  0.94753  0.07324  1.0000
  C   C2        1.0  0.12713  0.96514  0.03784  1.0000
  C   C3        1.0  0.16952  0.95121  0.02427  1.0000
  C   C4        1.0  0.18999  0.97146  0.98774  1.0000
  C   C5        1.0  0.16810  0.00534  0.96501  1.0000
  F   F1        1.0  0.18802  0.02443  0.92990  1.0000
  C   C6        1.0  0.12598  0.01968  0.97796  1.0000
  C   C7        1.0  0.10523  0.99980  0.01453  1.0000
  N   N1        1.0  0.06247  0.01207  0.02994  1.0000
  C   C8        1.0  0.03591  0.04647  0.01567  1.0000
  O   O2        1.0  0.04529  0.07455  0.98760  1.0000
  N   N2        1.0  0.99563  0.04638  0.03777  1.0000
  C   C9        1.0  0.96119  0.07796  0.02544  1.0000
  C   C10       1.0  0.93278  0.06057  0.98764  1.0000
  C   C11       1.0  0.94371  0.07007  0.94394  1.0000
  C   C12       1.0  0.91675  0.05167  0.91182  1.0000
  N   N3        1.0  0.88145  0.02569  0.92108  1.0000
  C   C13       1.0  0.87316  0.01751  0.96456  1.0000
  N   N4        1.0  0.83593  0.98950  0.97594  1.0000
  C   C14       1.0  0.82274  0.97792  0.01864  1.0000
  C   C15       1.0  0.78608  0.95079  0.01462  1.0000
  C   C16       1.0  0.77900  0.94744  0.96851  1.0000
  N   N5        1.0  0.80866  0.97053  0.94480  1.0000
  N   N6        1.0  0.89798  0.03399  0.99859  1.0000
  H   H1        1.0  0.15568  0.92432  0.11326  1.0000
  H   H2        1.0  0.13077  0.88355  0.07651  1.0000
  H   H3        1.0  0.10206  0.90257  0.12431  1.0000
  H   H4        1.0  0.18747  0.92483  0.04126  1.0000
  H   H5        1.0  0.22287  0.96103  0.97679  1.0000
  H   H6        1.0  0.11047  0.04612  0.95887  1.0000
  H   H7        1.0  0.05238  0.99521  0.05737  1.0000
  H   H8        1.0  0.98444  0.01624  0.04767  1.0000
  H   H9        1.0  0.94022  0.08283  0.05494  1.0000
  H   H10       1.0  0.97588  0.11029  0.01692  1.0000
  H   H11       1.0  0.97225  0.09042  0.93521  1.0000
  H   H12       1.0  0.92301  0.05734  0.87661  1.0000
  H   H13       1.0  0.84070  0.99018  0.04735  1.0000
  H   H14       1.0  0.76713  0.93562  0.04124  1.0000
  H   H15       1.0  0.75334  0.92904  0.95105  1.0000
