data_image0
_chemical_formula_structural       COC5NC4ONC8FH27
_chemical_formula_sum              "C18 O2 N2 F1 H27"
_cell_length_a       30
_cell_length_b       30
_cell_length_c       30
_cell_angle_alpha    90
_cell_angle_beta     90
_cell_angle_gamma    90

_space_group_name_H-M_alt    "P 1"
_space_group_IT_number       1

loop_
  _space_group_symop_operation_xyz
  'x, y, z'

loop_
  _atom_site_type_symbol
  _atom_site_label
  _atom_site_symmetry_multiplicity
  _atom_site_fract_x
  _atom_site_fract_y
  _atom_site_fract_z
  _atom_site_occupancy
  C   C1        1.0  0.22596  0.02964  0.93734  1.0000
  O   O1        1.0  0.18938  0.05481  0.95384  1.0000
  C   C2        1.0  0.15974  0.03318  0.98093  1.0000
  C   C3        1.0  0.16232  0.98856  0.99381  1.0000
  C   C4        1.0  0.12968  0.97017  0.02173  1.0000
  C   C5        1.0  0.09384  0.99591  0.03719  1.0000
  C   C6        1.0  0.05851  0.97591  0.06711  1.0000
  N   N1        1.0  0.02171  0.95274  0.04497  1.0000
  C   C7        1.0  0.03380  0.91004  0.02540  1.0000
  C   C8        1.0  0.99186  0.98129  0.01775  1.0000
  C   C9        1.0  0.00113  0.98059  0.96754  1.0000
  C   C10       1.0  0.94229  0.96771  0.02599  1.0000
  O   O2        1.0  0.93195  0.92854  0.03364  1.0000
  N   N2        1.0  0.90926  0.00075  0.02407  1.0000
  C   C11       1.0  0.86335  0.98694  0.03330  1.0000
  C   C12       1.0  0.83967  0.97159  0.99101  1.0000
  C   C13       1.0  0.81913  0.00894  0.96306  1.0000
  C   C14       1.0  0.84258  0.05417  0.96291  1.0000
  C   C15       1.0  0.89341  0.05241  0.96077  1.0000
  C   C16       1.0  0.91499  0.04584  0.00657  1.0000
  C   C17       1.0  0.09162  0.04075  0.02444  1.0000
  C   C18       1.0  0.12415  0.05881  0.99663  1.0000
  F   F1        1.0  0.12059  0.10187  0.98501  1.0000
  H   H1        1.0  0.21455  0.00197  0.91646  1.0000
  H   H2        1.0  0.24616  0.05170  0.91646  1.0000
  H   H3        1.0  0.24712  0.01775  0.96461  1.0000
  H   H4        1.0  0.18922  0.96704  0.98279  1.0000
  H   H5        1.0  0.13243  0.93529  0.03139  1.0000
  H   H6        1.0  0.07479  0.95317  0.09076  1.0000
  H   H7        1.0  0.04482  0.00226  0.08854  1.0000
  H   H8        1.0  0.00440  0.89126  0.01475  1.0000
  H   H9        1.0  0.05077  0.88905  0.05001  1.0000
  H   H10       1.0  0.05584  0.91347  0.99653  1.0000
  H   H11       1.0  0.99559  0.01525  0.03038  1.0000
  H   H12       1.0  0.03617  0.98730  0.96005  1.0000
  H   H13       1.0  0.99220  0.94846  0.95264  1.0000
  H   H14       1.0  0.98150  0.00592  0.95018  1.0000
  H   H15       1.0  0.84559  0.01426  0.04981  1.0000
  H   H16       1.0  0.86391  0.95927  0.05716  1.0000
  H   H17       1.0  0.81277  0.94857  0.00018  1.0000
  H   H18       1.0  0.86270  0.95234  0.97009  1.0000
  H   H19       1.0  0.78472  0.01439  0.97429  1.0000
  H   H20       1.0  0.81630  0.99693  0.92862  1.0000
  H   H21       1.0  0.83209  0.07347  0.99214  1.0000
  H   H22       1.0  0.83033  0.07280  0.93390  1.0000
  H   H23       1.0  0.90507  0.08452  0.94771  1.0000
  H   H24       1.0  0.90436  0.02674  0.93720  1.0000
  H   H25       1.0  0.90081  0.06906  0.03099  1.0000
  H   H26       1.0  0.95014  0.05448  0.00368  1.0000
  H   H27       1.0  0.06473  0.06213  0.03583  1.0000
