data_image0
_chemical_formula_structural       COC4NCOCNCONFC4FC5H17
_chemical_formula_sum              "C17 O3 N3 F2 H17"
_cell_length_a       30
_cell_length_b       30
_cell_length_c       30
_cell_angle_alpha    90
_cell_angle_beta     90
_cell_angle_gamma    90

_space_group_name_H-M_alt    "P 1"
_space_group_IT_number       1

loop_
  _space_group_symop_operation_xyz
  'x, y, z'

loop_
  _atom_site_type_symbol
  _atom_site_label
  _atom_site_symmetry_multiplicity
  _atom_site_fract_x
  _atom_site_fract_y
  _atom_site_fract_z
  _atom_site_occupancy
  C   C1        1.0  0.18792  0.11089  0.00989  1.0000
  O   O1        1.0  0.14145  0.11635  0.01774  1.0000
  C   C2        1.0  0.11674  0.07822  0.02186  1.0000
  C   C3        1.0  0.13250  0.03482  0.01781  1.0000
  C   C4        1.0  0.10337  0.99866  0.02308  1.0000
  C   C5        1.0  0.05810  0.00509  0.03245  1.0000
  N   N1        1.0  0.02804  0.96924  0.03753  1.0000
  C   C6        1.0  0.03642  0.92389  0.03431  1.0000
  O   O2        1.0  0.07302  0.90592  0.03053  1.0000
  C   C7        1.0  0.99415  0.89546  0.03942  1.0000
  N   N2        1.0  0.95590  0.91654  0.01783  1.0000
  C   C8        1.0  0.91953  0.93139  0.04158  1.0000
  O   O3        1.0  0.91823  0.92776  0.08250  1.0000
  N   N3        1.0  0.88442  0.94901  0.01713  1.0000
  F   F1        1.0  0.84457  0.95232  0.04035  1.0000
  C   C9        1.0  0.88368  0.96493  0.97257  1.0000
  C   C10       1.0  0.92190  0.97781  0.94863  1.0000
  C   C11       1.0  0.91842  0.99301  0.90464  1.0000
  C   C12       1.0  0.87675  0.99592  0.88462  1.0000
  F   F2        1.0  0.87350  0.01005  0.84241  1.0000
  C   C13       1.0  0.83846  0.98440  0.90784  1.0000
  C   C14       1.0  0.84195  0.96939  0.95181  1.0000
  C   C15       1.0  0.04186  0.04904  0.03643  1.0000
  C   C16       1.0  0.99383  0.05929  0.04696  1.0000
  C   C17       1.0  0.07155  0.08503  0.03094  1.0000
  H   H1        1.0  0.20275  0.14423  0.00783  1.0000
  H   H2        1.0  0.19400  0.09392  0.97823  1.0000
  H   H3        1.0  0.20399  0.09334  0.03758  1.0000
  H   H4        1.0  0.16730  0.02759  0.01079  1.0000
  H   H5        1.0  0.11761  0.96542  0.02003  1.0000
  H   H6        1.0  0.99618  0.97691  0.04542  1.0000
  H   H7        1.0  0.99939  0.86331  0.02285  1.0000
  H   H8        1.0  0.98810  0.88987  0.07498  1.0000
  H   H9        1.0  0.95008  0.90689  0.98595  1.0000
  H   H10       1.0  0.95490  0.97809  0.96363  1.0000
  H   H11       1.0  0.94794  0.00304  0.88611  1.0000
  H   H12       1.0  0.80599  0.98712  0.89178  1.0000
  H   H13       1.0  0.81157  0.96044  0.96962  1.0000
  H   H14       1.0  0.97183  0.04473  0.02175  1.0000
  H   H15       1.0  0.98749  0.09530  0.04735  1.0000
  H   H16       1.0  0.98508  0.04621  0.07986  1.0000
  H   H17       1.0  0.05954  0.11917  0.03397  1.0000
