data_image0
_chemical_formula_structural       COC12NCOC2H25
_chemical_formula_sum              "C16 O2 N1 H25"
_cell_length_a       30
_cell_length_b       30
_cell_length_c       30
_cell_angle_alpha    90
_cell_angle_beta     90
_cell_angle_gamma    90

_space_group_name_H-M_alt    "P 1"
_space_group_IT_number       1

loop_
  _space_group_symop_operation_xyz
  'x, y, z'

loop_
  _atom_site_type_symbol
  _atom_site_label
  _atom_site_symmetry_multiplicity
  _atom_site_fract_x
  _atom_site_fract_y
  _atom_site_fract_z
  _atom_site_occupancy
  C   C1        1.0  0.95597  0.12919  0.98079  1.0000
  O   O1        1.0  0.96132  0.08341  0.99202  1.0000
  C   C2        1.0  0.96331  0.05563  0.95658  1.0000
  C   C3        1.0  0.96855  0.01013  0.96167  1.0000
  C   C4        1.0  0.97238  0.98028  0.00224  1.0000
  C   C5        1.0  0.93204  0.94699  0.00309  1.0000
  C   C6        1.0  0.93752  0.90390  0.97651  1.0000
  C   C7        1.0  0.91646  0.93598  0.05064  1.0000
  C   C8        1.0  0.02161  0.96322  0.00972  1.0000
  C   C9        1.0  0.02580  0.93303  0.05114  1.0000
  C   C10       1.0  0.04257  0.93875  0.96968  1.0000
  C   C11       1.0  0.05259  0.00593  0.02103  1.0000
  C   C12       1.0  0.09137  0.02220  0.00497  1.0000
  C   C13       1.0  0.09088  0.06280  0.03450  1.0000
  N   N1        1.0  0.12884  0.06282  0.06507  1.0000
  C   C14       1.0  0.05009  0.04131  0.05759  1.0000
  O   O2        1.0  0.96863  0.99011  0.92075  1.0000
  C   C15       1.0  0.96399  0.02295  0.88988  1.0000
  C   C16       1.0  0.96051  0.06394  0.91021  1.0000
  H   H1        1.0  0.95584  0.14839  0.01187  1.0000
  H   H2        1.0  0.98395  0.14117  0.96049  1.0000
  H   H3        1.0  0.92397  0.13496  0.96391  1.0000
  H   H4        1.0  0.96574  0.00283  0.03048  1.0000
  H   H5        1.0  0.90356  0.96456  0.98793  1.0000
  H   H6        1.0  0.96159  0.88129  0.99195  1.0000
  H   H7        1.0  0.94776  0.91026  0.94212  1.0000
  H   H8        1.0  0.90570  0.88598  0.97505  1.0000
  H   H9        1.0  0.91229  0.96630  0.07037  1.0000
  H   H10       1.0  0.88411  0.91906  0.04987  1.0000
  H   H11       1.0  0.93947  0.91392  0.06811  1.0000
  H   H12       1.0  0.06093  0.92646  0.05925  1.0000
  H   H13       1.0  0.00999  0.90064  0.04597  1.0000
  H   H14       1.0  0.01088  0.94868  0.08062  1.0000
  H   H15       1.0  0.07645  0.92748  0.97763  1.0000
  H   H16       1.0  0.02382  0.90910  0.96009  1.0000
  H   H17       1.0  0.04559  0.96021  0.94036  1.0000
  H   H18       1.0  0.11344  0.01188  0.97820  1.0000
  H   H19       1.0  0.08448  0.09476  0.01829  1.0000
  H   H20       1.0  0.15841  0.06739  0.04896  1.0000
  H   H21       1.0  0.13227  0.03347  0.08202  1.0000
  H   H22       1.0  0.05513  0.02889  0.09173  1.0000
  H   H23       1.0  0.02018  0.06241  0.05781  1.0000
  H   H24       1.0  0.96374  0.01193  0.85555  1.0000
  H   H25       1.0  0.95626  0.09542  0.89330  1.0000
