data_image0
_chemical_formula_structural       COC4NCN2CSC2ONC2NCOC4SC2H23
_chemical_formula_sum              "C18 O3 N5 S2 H23"
_cell_length_a       30
_cell_length_b       30
_cell_length_c       30
_cell_angle_alpha    90
_cell_angle_beta     90
_cell_angle_gamma    90

_space_group_name_H-M_alt    "P 1"
_space_group_IT_number       1

loop_
  _space_group_symop_operation_xyz
  'x, y, z'

loop_
  _atom_site_type_symbol
  _atom_site_label
  _atom_site_symmetry_multiplicity
  _atom_site_fract_x
  _atom_site_fract_y
  _atom_site_fract_z
  _atom_site_occupancy
  C   C1        1.0  0.21513  0.95320  0.99379  1.0000
  O   O1        1.0  0.20539  0.99856  0.98397  1.0000
  C   C2        1.0  0.16212  0.01199  0.98864  1.0000
  C   C3        1.0  0.15467  0.05698  0.97957  1.0000
  C   C4        1.0  0.11203  0.07532  0.98336  1.0000
  C   C5        1.0  0.07582  0.04894  0.99656  1.0000
  N   N1        1.0  0.03363  0.06869  0.00153  1.0000
  C   C6        1.0  0.00705  0.05793  0.03713  1.0000
  N   N2        1.0  0.00313  0.02191  0.06032  1.0000
  N   N3        1.0  0.01116  0.98177  0.03890  1.0000
  C   C7        1.0  0.04471  0.97422  0.01322  1.0000
  S   S1        1.0  0.04072  0.92623  0.97922  1.0000
  C   C8        1.0  0.00445  0.88960  0.01004  1.0000
  C   C9        1.0  0.96002  0.90602  0.02794  1.0000
  O   O2        1.0  0.94850  0.89469  0.06597  1.0000
  N   N4        1.0  0.92910  0.92869  0.00397  1.0000
  C   C10       1.0  0.92930  0.94787  0.96010  1.0000
  C   C11       1.0  0.92722  0.91201  0.92408  1.0000
  N   N5        1.0  0.89024  0.97631  0.95667  1.0000
  C   C12       1.0  0.88332  0.01871  0.97186  1.0000
  O   O3        1.0  0.84503  0.03337  0.97084  1.0000
  C   C13       1.0  0.92260  0.04690  0.98695  1.0000
  C   C14       1.0  0.91568  0.07368  0.03072  1.0000
  C   C15       1.0  0.89819  0.04423  0.06878  1.0000
  C   C16       1.0  0.88335  0.11289  0.02356  1.0000
  S   S2        1.0  0.96922  0.10102  0.04961  1.0000
  C   C17       1.0  0.08321  0.00349  0.00429  1.0000
  C   C18       1.0  0.12626  0.98515  0.00087  1.0000
  H   H1        1.0  0.25095  0.94821  0.98903  1.0000
  H   H2        1.0  0.19765  0.93078  0.97089  1.0000
  H   H3        1.0  0.20731  0.94528  0.02855  1.0000
  H   H4        1.0  0.18248  0.07809  0.96973  1.0000
  H   H5        1.0  0.10776  0.11067  0.97652  1.0000
  H   H6        1.0  0.03276  0.10176  0.99467  1.0000
  H   H7        1.0  0.02379  0.87760  0.03864  1.0000
  H   H8        1.0  0.99750  0.86044  0.98921  1.0000
  H   H9        1.0  0.90249  0.93662  0.02308  1.0000
  H   H10       1.0  0.95922  0.96787  0.95536  1.0000
  H   H11       1.0  0.95629  0.89005  0.92511  1.0000
  H   H12       1.0  0.89753  0.89105  0.92796  1.0000
  H   H13       1.0  0.92577  0.92716  0.89089  1.0000
  H   H14       1.0  0.86114  0.96097  0.94912  1.0000
  H   H15       1.0  0.95087  0.02471  0.99035  1.0000
  H   H16       1.0  0.93055  0.06954  0.95933  1.0000
  H   H17       1.0  0.86429  0.03253  0.06181  1.0000
  H   H18       1.0  0.91870  0.01452  0.07384  1.0000
  H   H19       1.0  0.89666  0.06248  0.10040  1.0000
  H   H20       1.0  0.88028  0.13360  0.05354  1.0000
  H   H21       1.0  0.89416  0.13439  0.99605  1.0000
  H   H22       1.0  0.84964  0.10137  0.01570  1.0000
  H   H23       1.0  0.13093  0.94995  0.00776  1.0000
