data_image0
_chemical_formula_structural       COC4OC3NCOC11OC4H37
_chemical_formula_sum              "C24 O4 N1 H37"
_cell_length_a       30
_cell_length_b       30
_cell_length_c       30
_cell_angle_alpha    90
_cell_angle_beta     90
_cell_angle_gamma    90

_space_group_name_H-M_alt    "P 1"
_space_group_IT_number       1

loop_
  _space_group_symop_operation_xyz
  'x, y, z'

loop_
  _atom_site_type_symbol
  _atom_site_label
  _atom_site_symmetry_multiplicity
  _atom_site_fract_x
  _atom_site_fract_y
  _atom_site_fract_z
  _atom_site_occupancy
  C   C1        1.0  0.84976  0.11030  0.98199  1.0000
  O   O1        1.0  0.85060  0.06898  0.95822  1.0000
  C   C2        1.0  0.87583  0.03599  0.97943  1.0000
  C   C3        1.0  0.85864  0.01706  0.01603  1.0000
  C   C4        1.0  0.87226  0.98229  0.04625  1.0000
  C   C5        1.0  0.91300  0.97586  0.06397  1.0000
  O   O2        1.0  0.92349  0.94672  0.09785  1.0000
  C   C6        1.0  0.88874  0.92096  0.11719  1.0000
  C   C7        1.0  0.95144  0.00028  0.04452  1.0000
  C   C8        1.0  0.99660  0.99723  0.06753  1.0000
  N   N1        1.0  0.01733  0.99515  0.02151  1.0000
  C   C9        1.0  0.05757  0.97128  0.01896  1.0000
  O   O3        1.0  0.06571  0.93899  0.04287  1.0000
  C   C10       1.0  0.09250  0.99146  0.98758  1.0000
  C   C11       1.0  0.12888  0.01602  0.01491  1.0000
  C   C12       1.0  0.12472  0.06729  0.01819  1.0000
  C   C13       1.0  0.12726  0.09011  0.97251  1.0000
  C   C14       1.0  0.08341  0.08267  0.04359  1.0000
  C   C15       1.0  0.11365  0.95632  0.95549  1.0000
  C   C16       1.0  0.13839  0.91812  0.97847  1.0000
  C   C17       1.0  0.07985  0.93750  0.92208  1.0000
  C   C18       1.0  0.97326  0.97609  0.00470  1.0000
  C   C19       1.0  0.97365  0.92459  0.00153  1.0000
  C   C20       1.0  0.93926  0.91294  0.96624  1.0000
  O   O4        1.0  0.94464  0.94758  0.93410  1.0000
  C   C21       1.0  0.95333  0.98884  0.95828  1.0000
  C   C22       1.0  0.98309  0.02317  0.93232  1.0000
  C   C23       1.0  0.95122  0.06009  0.94783  1.0000
  C   C24       1.0  0.91526  0.02343  0.95214  1.0000
  H   H1        1.0  0.83174  0.10712  0.01361  1.0000
  H   H2        1.0  0.88364  0.12277  0.98786  1.0000
  H   H3        1.0  0.83206  0.13479  0.96149  1.0000
  H   H4        1.0  0.82649  0.03040  0.02672  1.0000
  H   H5        1.0  0.84393  0.96353  0.05898  1.0000
  H   H6        1.0  0.87589  0.89707  0.09262  1.0000
  H   H7        1.0  0.90265  0.90202  0.14522  1.0000
  H   H8        1.0  0.86188  0.94213  0.13004  1.0000
  H   H9        1.0  0.94372  0.03568  0.03959  1.0000
  H   H10       1.0  0.00365  0.96788  0.08803  1.0000
  H   H11       1.0  0.00665  0.02716  0.08583  1.0000
  H   H12       1.0  0.07614  0.01590  0.96645  1.0000
  H   H13       1.0  0.16159  0.00956  0.99963  1.0000
  H   H14       1.0  0.13090  0.00226  0.04878  1.0000
  H   H15       1.0  0.15409  0.07873  0.03713  1.0000
  H   H16       1.0  0.15651  0.07851  0.95395  1.0000
  H   H17       1.0  0.13047  0.12633  0.97630  1.0000
  H   H18       1.0  0.09766  0.08373  0.95215  1.0000
  H   H19       1.0  0.08006  0.06482  0.07522  1.0000
  H   H20       1.0  0.08580  0.11835  0.05140  1.0000
  H   H21       1.0  0.05313  0.07787  0.02389  1.0000
  H   H22       1.0  0.13848  0.97424  0.93537  1.0000
  H   H23       1.0  0.11541  0.89465  0.99436  1.0000
  H   H24       1.0  0.16185  0.93018  0.00364  1.0000
  H   H25       1.0  0.15775  0.89872  0.95408  1.0000
  H   H26       1.0  0.09682  0.91748  0.89660  1.0000
  H   H27       1.0  0.06196  0.96424  0.90485  1.0000
  H   H28       1.0  0.05551  0.91578  0.93830  1.0000
  H   H29       1.0  0.96733  0.90751  0.03312  1.0000
  H   H30       1.0  0.00565  0.91241  0.98909  1.0000
  H   H31       1.0  0.90501  0.91390  0.97889  1.0000
  H   H32       1.0  0.94542  0.88041  0.95085  1.0000
  H   H33       1.0  0.98313  0.01813  0.89607  1.0000
  H   H34       1.0  0.01731  0.02889  0.94240  1.0000
  H   H35       1.0  0.96094  0.07622  0.97922  1.0000
  H   H36       1.0  0.94464  0.08625  0.92327  1.0000
  H   H37       1.0  0.90082  0.01704  0.91868  1.0000
