data_image0
_chemical_formula_structural       COC6NC4NC3OC6NC8OCOC2H33
_chemical_formula_sum              "C31 O4 N3 H33"
_cell_length_a       30
_cell_length_b       30
_cell_length_c       30
_cell_angle_alpha    90
_cell_angle_beta     90
_cell_angle_gamma    90

_space_group_name_H-M_alt    "P 1"
_space_group_IT_number       1

loop_
  _space_group_symop_operation_xyz
  'x, y, z'

loop_
  _atom_site_type_symbol
  _atom_site_label
  _atom_site_symmetry_multiplicity
  _atom_site_fract_x
  _atom_site_fract_y
  _atom_site_fract_z
  _atom_site_occupancy
  C   C1        1.0  0.83567  0.16842  0.96193  1.0000
  O   O1        1.0  0.83404  0.12315  0.94796  1.0000
  C   C2        1.0  0.87004  0.09709  0.95823  1.0000
  C   C3        1.0  0.90739  0.11041  0.98220  1.0000
  C   C4        1.0  0.94200  0.08022  0.99018  1.0000
  C   C5        1.0  0.94001  0.03603  0.97450  1.0000
  C   C6        1.0  0.97809  0.00299  0.98395  1.0000
  C   C7        1.0  0.02474  0.02409  0.97712  1.0000
  N   N1        1.0  0.06243  0.99221  0.98081  1.0000
  C   C8        1.0  0.07554  0.97344  0.93732  1.0000
  C   C9        1.0  0.04610  0.93529  0.92003  1.0000
  C   C10       1.0  0.04513  0.89271  0.94819  1.0000
  C   C11       1.0  0.02850  0.89807  0.99628  1.0000
  N   N2        1.0  0.05402  0.90221  0.03119  1.0000
  C   C12       1.0  0.09892  0.89857  0.02559  1.0000
  C   C13       1.0  0.12927  0.93112  0.02397  1.0000
  C   C14       1.0  0.12223  0.98001  0.02680  1.0000
  O   O2        1.0  0.15624  0.99432  0.05550  1.0000
  C   C15       1.0  0.15987  0.04006  0.06485  1.0000
  C   C16       1.0  0.15376  0.05360  0.10887  1.0000
  C   C17       1.0  0.15891  0.09849  0.11972  1.0000
  C   C18       1.0  0.17044  0.12924  0.08670  1.0000
  C   C19       1.0  0.17701  0.11519  0.04277  1.0000
  C   C20       1.0  0.17201  0.07030  0.03172  1.0000
  N   N3        1.0  0.09507  0.00769  0.00820  1.0000
  C   C21       1.0  0.97919  0.89574  0.00369  1.0000
  C   C22       1.0  0.95911  0.85445  0.99455  1.0000
  C   C23       1.0  0.91371  0.84821  0.00199  1.0000
  C   C24       1.0  0.88827  0.88297  0.01897  1.0000
  C   C25       1.0  0.90801  0.92408  0.02843  1.0000
  C   C26       1.0  0.95379  0.93140  0.02122  1.0000
  C   C27       1.0  0.97466  0.97735  0.02946  1.0000
  C   C28       1.0  0.95377  0.00512  0.06743  1.0000
  O   O3        1.0  0.95605  0.98197  0.10892  1.0000
  C   C29       1.0  0.90195  0.02279  0.95023  1.0000
  O   O4        1.0  0.90174  0.97987  0.93460  1.0000
  C   C30       1.0  0.86077  0.96262  0.91831  1.0000
  C   C31       1.0  0.86756  0.05337  0.94235  1.0000
  H   H1        1.0  0.86370  0.18599  0.94646  1.0000
  H   H2        1.0  0.80496  0.18461  0.95079  1.0000
  H   H3        1.0  0.83697  0.17090  0.99833  1.0000
  H   H4        1.0  0.91082  0.14399  0.99518  1.0000
  H   H5        1.0  0.97052  0.09196  0.00926  1.0000
  H   H6        1.0  0.97571  0.97844  0.95731  1.0000
  H   H7        1.0  0.02928  0.04973  0.00286  1.0000
  H   H8        1.0  0.02620  0.04224  0.94536  1.0000
  H   H9        1.0  0.10973  0.96056  0.93898  1.0000
  H   H10       1.0  0.07704  0.99996  0.91214  1.0000
  H   H11       1.0  0.01224  0.94677  0.91337  1.0000
  H   H12       1.0  0.05907  0.92594  0.88707  1.0000
  H   H13       1.0  0.02358  0.86864  0.93105  1.0000
  H   H14       1.0  0.07823  0.87728  0.94793  1.0000
  H   H15       1.0  0.11100  0.86436  0.02400  1.0000
  H   H16       1.0  0.16409  0.92173  0.02095  1.0000
  H   H17       1.0  0.14492  0.02947  0.13435  1.0000
  H   H18       1.0  0.15393  0.10954  0.15386  1.0000
  H   H19       1.0  0.17440  0.16422  0.09527  1.0000
  H   H20       1.0  0.18595  0.13926  0.01719  1.0000
  H   H21       1.0  0.17713  0.05920  0.99766  1.0000
  H   H22       1.0  0.97892  0.82666  0.98242  1.0000
  H   H23       1.0  0.89838  0.81616  0.99506  1.0000
  H   H24       1.0  0.85287  0.87825  0.02510  1.0000
  H   H25       1.0  0.88682  0.95044  0.04132  1.0000
  H   H26       1.0  0.00816  0.97031  0.04204  1.0000
  H   H27       1.0  0.91883  0.01354  0.06134  1.0000
  H   H28       1.0  0.97250  0.03619  0.07157  1.0000
  H   H29       1.0  0.94857  0.00321  0.13216  1.0000
  H   H30       1.0  0.86547  0.92702  0.91189  1.0000
  H   H31       1.0  0.83410  0.96600  0.94300  1.0000
  H   H32       1.0  0.85169  0.97840  0.88671  1.0000
  H   H33       1.0  0.83819  0.04422  0.92330  1.0000
