data_image0
_chemical_formula_structural       COC8ONC2OC13SC8H41
_chemical_formula_sum              "C32 O3 N1 S1 H41"
_cell_length_a       30
_cell_length_b       30
_cell_length_c       30
_cell_angle_alpha    90
_cell_angle_beta     90
_cell_angle_gamma    90

_space_group_name_H-M_alt    "P 1"
_space_group_IT_number       1

loop_
  _space_group_symop_operation_xyz
  'x, y, z'

loop_
  _atom_site_type_symbol
  _atom_site_label
  _atom_site_symmetry_multiplicity
  _atom_site_fract_x
  _atom_site_fract_y
  _atom_site_fract_z
  _atom_site_occupancy
  C   C1        1.0  0.79721  0.14590  0.08907  1.0000
  O   O1        1.0  0.83218  0.16263  0.06181  1.0000
  C   C2        1.0  0.86321  0.13255  0.04729  1.0000
  C   C3        1.0  0.86346  0.08697  0.05630  1.0000
  C   C4        1.0  0.89728  0.05979  0.03908  1.0000
  C   C5        1.0  0.93133  0.07767  0.01235  1.0000
  C   C6        1.0  0.96908  0.04813  0.99287  1.0000
  C   C7        1.0  0.00029  0.03489  0.03114  1.0000
  C   C8        1.0  0.04520  0.02859  0.03394  1.0000
  C   C9        1.0  0.05930  0.03180  0.08195  1.0000
  O   O2        1.0  0.07841  0.06554  0.09559  1.0000
  N   N1        1.0  0.04755  0.00018  0.11277  1.0000
  C   C10       1.0  0.05291  0.95190  0.10903  1.0000
  C   C11       1.0  0.01448  0.92654  0.08747  1.0000
  O   O3        1.0  0.02535  0.91716  0.04208  1.0000
  C   C12       1.0  0.98844  0.90045  0.01632  1.0000
  C   C13       1.0  0.00868  0.87084  0.98002  1.0000
  C   C14       1.0  0.98070  0.85792  0.93952  1.0000
  C   C15       1.0  0.93947  0.88524  0.92840  1.0000
  C   C16       1.0  0.94527  0.93554  0.92006  1.0000
  C   C17       1.0  0.97004  0.96443  0.95648  1.0000
  C   C18       1.0  0.96008  0.94042  0.00182  1.0000
  C   C19       1.0  0.02045  0.96663  0.94404  1.0000
  C   C20       1.0  0.04118  0.00540  0.91722  1.0000
  C   C21       1.0  0.01427  0.02335  0.87909  1.0000
  C   C22       1.0  0.97129  0.03546  0.87822  1.0000
  C   C23       1.0  0.93700  0.03423  0.91446  1.0000
  C   C24       1.0  0.94793  0.01213  0.96018  1.0000
  S   S1        1.0  0.06408  0.05377  0.94710  1.0000
  C   C25       1.0  0.07962  0.03015  0.99841  1.0000
  C   C26       1.0  0.12242  0.01541  0.00173  1.0000
  C   C27       1.0  0.15733  0.01841  0.96481  1.0000
  C   C28       1.0  0.19488  0.98780  0.97991  1.0000
  C   C29       1.0  0.19405  0.99263  0.03007  1.0000
  C   C30       1.0  0.14441  0.99257  0.04095  1.0000
  C   C31       1.0  0.93102  0.12367  0.00400  1.0000
  C   C32       1.0  0.89718  0.15066  0.02117  1.0000
  H   H1        1.0  0.77684  0.12168  0.07089  1.0000
  H   H2        1.0  0.81029  0.13159  0.11999  1.0000
  H   H3        1.0  0.77570  0.17395  0.09805  1.0000
  H   H4        1.0  0.83791  0.07146  0.07662  1.0000
  H   H5        1.0  0.89681  0.02439  0.04689  1.0000
  H   H6        1.0  0.98712  0.07168  0.97199  1.0000
  H   H7        1.0  0.98263  0.03479  0.06303  1.0000
  H   H8        1.0  0.05784  0.01193  0.14274  1.0000
  H   H9        1.0  0.08451  0.94477  0.09256  1.0000
  H   H10       1.0  0.05571  0.94045  0.14364  1.0000
  H   H11       1.0  0.01063  0.89431  0.10426  1.0000
  H   H12       1.0  0.98318  0.94491  0.09094  1.0000
  H   H13       1.0  0.96801  0.87905  0.03791  1.0000
  H   H14       1.0  0.04044  0.88481  0.96859  1.0000
  H   H15       1.0  0.01981  0.83987  0.99622  1.0000
  H   H16       1.0  0.96973  0.82330  0.94416  1.0000
  H   H17       1.0  0.00258  0.85709  0.91019  1.0000
  H   H18       1.0  0.92468  0.87100  0.89805  1.0000
  H   H19       1.0  0.91416  0.87962  0.95417  1.0000
  H   H20       1.0  0.96106  0.94005  0.88739  1.0000
  H   H21       1.0  0.91109  0.94800  0.91626  1.0000
  H   H22       1.0  0.96050  0.96482  0.02864  1.0000
  H   H23       1.0  0.92496  0.93004  0.00190  1.0000
  H   H24       1.0  0.02737  0.93741  0.92307  1.0000
  H   H25       1.0  0.04082  0.96060  0.97349  1.0000
  H   H26       1.0  0.07108  0.99073  0.90194  1.0000
  H   H27       1.0  0.03316  0.02781  0.84833  1.0000
  H   H28       1.0  0.95874  0.04867  0.84674  1.0000
  H   H29       1.0  0.92563  0.06856  0.91981  1.0000
  H   H30       1.0  0.90773  0.01738  0.90035  1.0000
  H   H31       1.0  0.91451  0.00495  0.97353  1.0000
  H   H32       1.0  0.16971  0.05274  0.96247  1.0000
  H   H33       1.0  0.14526  0.00759  0.93218  1.0000
  H   H34       1.0  0.22704  0.99717  0.96548  1.0000
  H   H35       1.0  0.18772  0.95322  0.97025  1.0000
  H   H36       1.0  0.21189  0.96568  0.04696  1.0000
  H   H37       1.0  0.20928  0.02433  0.04008  1.0000
  H   H38       1.0  0.13939  0.00902  0.07293  1.0000
  H   H39       1.0  0.13291  0.95801  0.04247  1.0000
  H   H40       1.0  0.95712  0.13896  0.98397  1.0000
  H   H41       1.0  0.89740  0.18622  0.01415  1.0000
