data_image0
_chemical_formula_structural       COC5ON2COC2OC7OH22
_chemical_formula_sum              "C16 O5 N2 H22"
_cell_length_a       30
_cell_length_b       30
_cell_length_c       30
_cell_angle_alpha    90
_cell_angle_beta     90
_cell_angle_gamma    90

_space_group_name_H-M_alt    "P 1"
_space_group_IT_number       1

loop_
  _space_group_symop_operation_xyz
  'x, y, z'

loop_
  _atom_site_type_symbol
  _atom_site_label
  _atom_site_symmetry_multiplicity
  _atom_site_fract_x
  _atom_site_fract_y
  _atom_site_fract_z
  _atom_site_occupancy
  C   C1        1.0  0.25487  0.06199  0.99201  1.0000
  O   O1        1.0  0.23362  0.02797  0.96658  1.0000
  C   C2        1.0  0.19326  0.01277  0.98152  1.0000
  C   C3        1.0  0.16836  0.03227  0.01574  1.0000
  C   C4        1.0  0.12698  0.01441  0.02813  1.0000
  C   C5        1.0  0.11002  0.97686  0.00622  1.0000
  C   C6        1.0  0.06661  0.95611  0.01846  1.0000
  O   O2        1.0  0.05777  0.91767  0.00717  1.0000
  N   N1        1.0  0.03704  0.98191  0.04253  1.0000
  N   N2        1.0  0.99356  0.96490  0.04739  1.0000
  C   C7        1.0  0.95876  0.99564  0.04675  1.0000
  O   O3        1.0  0.96513  0.03611  0.04979  1.0000
  C   C8        1.0  0.91282  0.97449  0.04484  1.0000
  C   C9        1.0  0.88447  0.99019  0.00487  1.0000
  O   O4        1.0  0.90713  0.97673  0.96466  1.0000
  C   C10       1.0  0.83883  0.96661  0.00597  1.0000
  C   C11       1.0  0.80993  0.97741  0.96510  1.0000
  C   C12       1.0  0.81843  0.02384  0.94545  1.0000
  C   C13       1.0  0.83407  0.05634  0.98122  1.0000
  C   C14       1.0  0.87784  0.04139  0.00337  1.0000
  C   C15       1.0  0.13508  0.95683  0.97234  1.0000
  C   C16       1.0  0.17618  0.97489  0.96015  1.0000
  O   O5        1.0  0.20064  0.95506  0.92719  1.0000
  H   H1        1.0  0.26002  0.05156  0.02679  1.0000
  H   H2        1.0  0.23603  0.09336  0.99060  1.0000
  H   H3        1.0  0.28769  0.06810  0.97709  1.0000
  H   H4        1.0  0.18011  0.06161  0.03335  1.0000
  H   H5        1.0  0.10903  0.03014  0.05548  1.0000
  H   H6        1.0  0.03897  0.01588  0.04295  1.0000
  H   H7        1.0  0.98949  0.93332  0.03505  1.0000
  H   H8        1.0  0.91685  0.93790  0.04289  1.0000
  H   H9        1.0  0.89611  0.98170  0.07684  1.0000
  H   H10       1.0  0.90256  0.94477  0.96028  1.0000
  H   H11       1.0  0.82087  0.97628  0.03658  1.0000
  H   H12       1.0  0.84314  0.93011  0.00757  1.0000
  H   H13       1.0  0.81544  0.95230  0.93902  1.0000
  H   H14       1.0  0.77476  0.97450  0.97478  1.0000
  H   H15       1.0  0.78773  0.03636  0.92964  1.0000
  H   H16       1.0  0.84355  0.02172  0.91880  1.0000
  H   H17       1.0  0.83802  0.09005  0.96731  1.0000
  H   H18       1.0  0.80816  0.05884  0.00722  1.0000
  H   H19       1.0  0.87777  0.05561  0.03716  1.0000
  H   H20       1.0  0.90556  0.05683  0.98507  1.0000
  H   H21       1.0  0.12240  0.92711  0.95598  1.0000
  H   H22       1.0  0.18436  0.92961  0.91551  1.0000
