data_image0
_chemical_formula_structural       COC7NC4NC6O2C2H28
_chemical_formula_sum              "C20 O3 N2 H28"
_cell_length_a       30
_cell_length_b       30
_cell_length_c       30
_cell_angle_alpha    90
_cell_angle_beta     90
_cell_angle_gamma    90

_space_group_name_H-M_alt    "P 1"
_space_group_IT_number       1

loop_
  _space_group_symop_operation_xyz
  'x, y, z'

loop_
  _atom_site_type_symbol
  _atom_site_label
  _atom_site_symmetry_multiplicity
  _atom_site_fract_x
  _atom_site_fract_y
  _atom_site_fract_z
  _atom_site_occupancy
  C   C1        1.0  0.26526  0.04151  0.03653  1.0000
  O   O1        1.0  0.25203  0.99600  0.03672  1.0000
  C   C2        1.0  0.20792  0.98740  0.02921  1.0000
  C   C3        1.0  0.17466  0.01891  0.02216  1.0000
  C   C4        1.0  0.13055  0.00525  0.01488  1.0000
  C   C5        1.0  0.11785  0.95997  0.01441  1.0000
  C   C6        1.0  0.06792  0.94380  0.00635  1.0000
  C   C7        1.0  0.02885  0.97042  0.02673  1.0000
  C   C8        1.0  0.01605  0.98332  0.97870  1.0000
  N   N1        1.0  0.98380  0.00879  0.96398  1.0000
  C   C9        1.0  0.94729  0.02583  0.99157  1.0000
  C   C10       1.0  0.93221  0.07135  0.97344  1.0000
  C   C11       1.0  0.88183  0.07814  0.97671  1.0000
  C   C12       1.0  0.86225  0.05593  0.01814  1.0000
  N   N2        1.0  0.87074  0.00786  0.02058  1.0000
  C   C13       1.0  0.83150  0.97855  0.01774  1.0000
  C   C14       1.0  0.80251  0.98332  0.05959  1.0000
  C   C15       1.0  0.80315  0.98473  0.97566  1.0000
  C   C16       1.0  0.90800  0.99253  0.99253  1.0000
  C   C17       1.0  0.04946  0.95816  0.96204  1.0000
  C   C18       1.0  0.06278  0.94861  0.91605  1.0000
  O   O2        1.0  0.09227  0.92407  0.90239  1.0000
  O   O3        1.0  0.03695  0.97082  0.88657  1.0000
  C   C19       1.0  0.15245  0.92905  0.02150  1.0000
  C   C20       1.0  0.19655  0.94240  0.02881  1.0000
  H   H1        1.0  0.25900  0.05692  0.00404  1.0000
  H   H2        1.0  0.24885  0.06009  0.06333  1.0000
  H   H3        1.0  0.30120  0.04270  0.04262  1.0000
  H   H4        1.0  0.18163  0.05438  0.02198  1.0000
  H   H5        1.0  0.10537  0.03080  0.00920  1.0000
  H   H6        1.0  0.06437  0.90792  0.01305  1.0000
  H   H7        1.0  0.00451  0.94980  0.04460  1.0000
  H   H8        1.0  0.03828  0.99799  0.04877  1.0000
  H   H9        1.0  0.97818  0.01064  0.93044  1.0000
  H   H10       1.0  0.95911  0.03085  0.02587  1.0000
  H   H11       1.0  0.94926  0.09756  0.99246  1.0000
  H   H12       1.0  0.94236  0.07624  0.93865  1.0000
  H   H13       1.0  0.87439  0.11391  0.97700  1.0000
  H   H14       1.0  0.86574  0.06449  0.94682  1.0000
  H   H15       1.0  0.87744  0.07122  0.04770  1.0000
  H   H16       1.0  0.82674  0.06406  0.02025  1.0000
  H   H17       1.0  0.84332  0.94389  0.01791  1.0000
  H   H18       1.0  0.77604  0.95816  0.05964  1.0000
  H   H19       1.0  0.82238  0.97831  0.08983  1.0000
  H   H20       1.0  0.78653  0.01605  0.06180  1.0000
  H   H21       1.0  0.77615  0.96014  0.97494  1.0000
  H   H22       1.0  0.78777  0.01778  0.97410  1.0000
  H   H23       1.0  0.82286  0.97997  0.94535  1.0000
  H   H24       1.0  0.89696  0.98648  0.95817  1.0000
  H   H25       1.0  0.91997  0.96044  0.00536  1.0000
  H   H26       1.0  0.04960  0.96168  0.85794  1.0000
  H   H27       1.0  0.14495  0.89355  0.02112  1.0000
  H   H28       1.0  0.22220  0.91734  0.03407  1.0000
