data_image0
_chemical_formula_structural       COC4NC6NC2OC13N2H30
_chemical_formula_sum              "C26 O2 N4 H30"
_cell_length_a       30
_cell_length_b       30
_cell_length_c       30
_cell_angle_alpha    90
_cell_angle_beta     90
_cell_angle_gamma    90

_space_group_name_H-M_alt    "P 1"
_space_group_IT_number       1

loop_
  _space_group_symop_operation_xyz
  'x, y, z'

loop_
  _atom_site_type_symbol
  _atom_site_label
  _atom_site_symmetry_multiplicity
  _atom_site_fract_x
  _atom_site_fract_y
  _atom_site_fract_z
  _atom_site_occupancy
  C   C1        1.0  0.84175  0.18372  0.97797  1.0000
  O   O1        1.0  0.87806  0.17183  0.00617  1.0000
  C   C2        1.0  0.88835  0.12706  0.00414  1.0000
  C   C3        1.0  0.92274  0.11229  0.03074  1.0000
  C   C4        1.0  0.93381  0.06728  0.02919  1.0000
  C   C5        1.0  0.91040  0.03870  0.00115  1.0000
  N   N1        1.0  0.92239  0.99306  0.00006  1.0000
  C   C6        1.0  0.95638  0.98481  0.96551  1.0000
  C   C7        1.0  0.00261  0.99892  0.98018  1.0000
  C   C8        1.0  0.02540  0.97491  0.01310  1.0000
  C   C9        1.0  0.06792  0.98799  0.02678  1.0000
  C   C10       1.0  0.08872  0.02522  0.00766  1.0000
  C   C11       1.0  0.13452  0.03993  0.02305  1.0000
  N   N2        1.0  0.16766  0.00380  0.02305  1.0000
  C   C12       1.0  0.20764  0.01722  0.04855  1.0000
  C   C13       1.0  0.24882  0.99006  0.03499  1.0000
  O   O2        1.0  0.26155  0.99764  0.98953  1.0000
  C   C14       1.0  0.22454  0.00846  0.96126  1.0000
  C   C15       1.0  0.18007  0.98900  0.97767  1.0000
  C   C16       1.0  0.06581  0.04941  0.97492  1.0000
  C   C17       1.0  0.02326  0.03632  0.96122  1.0000
  C   C18       1.0  0.88228  0.96462  0.99899  1.0000
  C   C19       1.0  0.86123  0.95639  0.95264  1.0000
  C   C20       1.0  0.83940  0.91012  0.95459  1.0000
  C   C21       1.0  0.86820  0.88677  0.98791  1.0000
  C   C22       1.0  0.87095  0.84142  0.99611  1.0000
  C   C23       1.0  0.89867  0.82683  0.03054  1.0000
  C   C24       1.0  0.92259  0.85749  0.05654  1.0000
  C   C25       1.0  0.91923  0.90316  0.04830  1.0000
  C   C26       1.0  0.89237  0.91743  0.01347  1.0000
  N   N3        1.0  0.87676  0.05487  0.97587  1.0000
  N   N4        1.0  0.86560  0.09930  0.97715  1.0000
  H   H1        1.0  0.83589  0.21951  0.98190  1.0000
  H   H2        1.0  0.81117  0.16632  0.98774  1.0000
  H   H3        1.0  0.84972  0.17756  0.94287  1.0000
  H   H4        1.0  0.94060  0.13508  0.05230  1.0000
  H   H5        1.0  0.96055  0.05446  0.04993  1.0000
  H   H6        1.0  0.95843  0.94910  0.95777  1.0000
  H   H7        1.0  0.94760  0.00126  0.93397  1.0000
  H   H8        1.0  0.01003  0.94582  0.02829  1.0000
  H   H9        1.0  0.08509  0.96884  0.05236  1.0000
  H   H10       1.0  0.14638  0.06798  0.00276  1.0000
  H   H11       1.0  0.13021  0.05275  0.05708  1.0000
  H   H12       1.0  0.21508  0.05262  0.04292  1.0000
  H   H13       1.0  0.20109  0.01265  0.08418  1.0000
  H   H14       1.0  0.24303  0.95426  0.03951  1.0000
  H   H15       1.0  0.27731  0.99914  0.05592  1.0000
  H   H16       1.0  0.23223  0.99571  0.92794  1.0000
  H   H17       1.0  0.22250  0.04486  0.95869  1.0000
  H   H18       1.0  0.18340  0.95260  0.97905  1.0000
  H   H19       1.0  0.15389  0.99584  0.95315  1.0000
  H   H20       1.0  0.08090  0.07869  0.95979  1.0000
  H   H21       1.0  0.00611  0.05574  0.93584  1.0000
  H   H22       1.0  0.85681  0.97718  0.02219  1.0000
  H   H23       1.0  0.83690  0.98208  0.94370  1.0000
  H   H24       1.0  0.88623  0.95612  0.92599  1.0000
  H   H25       1.0  0.83985  0.89384  0.92197  1.0000
  H   H26       1.0  0.80513  0.91226  0.96696  1.0000
  H   H27       1.0  0.85193  0.81769  0.97653  1.0000
  H   H28       1.0  0.90146  0.79138  0.03759  1.0000
  H   H29       1.0  0.94365  0.84557  0.08351  1.0000
  H   H30       1.0  0.93716  0.92705  0.06874  1.0000
