data_image0
_chemical_formula_structural       COC8ON2COC4SH14
_chemical_formula_sum              "C14 O3 N2 S1 H14"
_cell_length_a       30
_cell_length_b       30
_cell_length_c       30
_cell_angle_alpha    90
_cell_angle_beta     90
_cell_angle_gamma    90

_space_group_name_H-M_alt    "P 1"
_space_group_IT_number       1

loop_
  _space_group_symop_operation_xyz
  'x, y, z'

loop_
  _atom_site_type_symbol
  _atom_site_label
  _atom_site_symmetry_multiplicity
  _atom_site_fract_x
  _atom_site_fract_y
  _atom_site_fract_z
  _atom_site_occupancy
  C   C1        1.0  0.92957  0.01887  0.08093  1.0000
  O   O1        1.0  0.94628  0.03941  0.04153  1.0000
  C   C2        1.0  0.91832  0.04148  0.00540  1.0000
  C   C3        1.0  0.87381  0.02774  0.00537  1.0000
  C   C4        1.0  0.84838  0.03042  0.96645  1.0000
  C   C5        1.0  0.86723  0.04666  0.92731  1.0000
  C   C6        1.0  0.91156  0.06054  0.92701  1.0000
  C   C7        1.0  0.93740  0.05846  0.96600  1.0000
  C   C8        1.0  0.98548  0.07368  0.96447  1.0000
  C   C9        1.0  0.01884  0.03652  0.95658  1.0000
  O   O2        1.0  0.04769  0.03837  0.92740  1.0000
  N   N1        1.0  0.01606  0.00120  0.98592  1.0000
  N   N2        1.0  0.05224  0.97137  0.98735  1.0000
  C   C10       1.0  0.06614  0.95659  0.02897  1.0000
  O   O3        1.0  0.04318  0.96396  0.06227  1.0000
  C   C11       1.0  0.10870  0.93319  0.02926  1.0000
  C   C12       1.0  0.13409  0.91701  0.99424  1.0000
  C   C13       1.0  0.17422  0.89608  0.00885  1.0000
  C   C14       1.0  0.17830  0.89675  0.05452  1.0000
  S   S1        1.0  0.13387  0.92210  0.07951  1.0000
  H   H1        1.0  0.90175  0.03794  0.09488  1.0000
  H   H2        1.0  0.92007  0.98418  0.07463  1.0000
  H   H3        1.0  0.95645  0.01870  0.10560  1.0000
  H   H4        1.0  0.85781  0.01471  0.03507  1.0000
  H   H5        1.0  0.81377  0.01966  0.96669  1.0000
  H   H6        1.0  0.84744  0.04855  0.89701  1.0000
  H   H7        1.0  0.92588  0.07308  0.89613  1.0000
  H   H8        1.0  0.98955  0.09830  0.93771  1.0000
  H   H9        1.0  0.99453  0.09113  0.99529  1.0000
  H   H10       1.0  0.99866  0.00486  0.01505  1.0000
  H   H11       1.0  0.07418  0.97446  0.96167  1.0000
  H   H12       1.0  0.12462  0.91944  0.95948  1.0000
  H   H13       1.0  0.19877  0.88120  0.98693  1.0000
  H   H14       1.0  0.20516  0.88341  0.07451  1.0000
