data_image0
_chemical_formula_structural       COC3SC6OC5NCONC2H20
_chemical_formula_sum              "C18 O3 S1 N2 H20"
_cell_length_a       30
_cell_length_b       30
_cell_length_c       30
_cell_angle_alpha    90
_cell_angle_beta     90
_cell_angle_gamma    90

_space_group_name_H-M_alt    "P 1"
_space_group_IT_number       1

loop_
  _space_group_symop_operation_xyz
  'x, y, z'

loop_
  _atom_site_type_symbol
  _atom_site_label
  _atom_site_symmetry_multiplicity
  _atom_site_fract_x
  _atom_site_fract_y
  _atom_site_fract_z
  _atom_site_occupancy
  C   C1        1.0  0.98715  0.98228  0.90809  1.0000
  O   O1        1.0  0.95255  0.99431  0.93820  1.0000
  C   C2        1.0  0.96377  0.02235  0.97278  1.0000
  C   C3        1.0  0.00595  0.04118  0.97919  1.0000
  C   C4        1.0  0.01404  0.06898  0.01581  1.0000
  S   S1        1.0  0.06755  0.09346  0.02483  1.0000
  C   C5        1.0  0.10305  0.04579  0.02651  1.0000
  C   C6        1.0  0.09434  0.00974  0.05472  1.0000
  C   C7        1.0  0.12294  0.97293  0.05540  1.0000
  C   C8        1.0  0.16087  0.97188  0.02817  1.0000
  C   C9        1.0  0.19036  0.93183  0.03008  1.0000
  C   C10       1.0  0.23344  0.93207  0.00429  1.0000
  O   O2        1.0  0.17916  0.89929  0.05232  1.0000
  C   C11       1.0  0.16984  0.00812  0.00021  1.0000
  C   C12       1.0  0.14107  0.04486  0.99953  1.0000
  C   C13       1.0  0.97953  0.07837  0.04558  1.0000
  C   C14       1.0  0.93726  0.05983  0.03933  1.0000
  C   C15       1.0  0.92902  0.03199  0.00299  1.0000
  N   N1        1.0  0.88735  0.01164  0.99487  1.0000
  C   C16       1.0  0.84699  0.02085  0.01442  1.0000
  O   O3        1.0  0.84023  0.05224  0.03985  1.0000
  N   N2        1.0  0.81290  0.99162  0.00242  1.0000
  C   C17       1.0  0.81933  0.94750  0.98320  1.0000
  C   C18       1.0  0.76774  0.00215  0.01642  1.0000
  H   H1        1.0  0.99955  0.01146  0.89001  1.0000
  H   H2        1.0  0.01421  0.96487  0.92534  1.0000
  H   H3        1.0  0.97303  0.95925  0.88358  1.0000
  H   H4        1.0  0.03302  0.03473  0.95613  1.0000
  H   H5        1.0  0.06533  0.00983  0.07649  1.0000
  H   H6        1.0  0.11547  0.94510  0.07749  1.0000
  H   H7        1.0  0.25385  0.96068  0.01390  1.0000
  H   H8        1.0  0.22665  0.93234  0.96849  1.0000
  H   H9        1.0  0.25225  0.90182  0.01215  1.0000
  H   H10       1.0  0.19886  0.00872  0.97858  1.0000
  H   H11       1.0  0.14864  0.07282  0.97769  1.0000
  H   H12       1.0  0.98508  0.10011  0.07407  1.0000
  H   H13       1.0  0.91144  0.06754  0.06350  1.0000
  H   H14       1.0  0.88656  0.99374  0.96635  1.0000
  H   H15       1.0  0.80064  0.92316  0.00294  1.0000
  H   H16       1.0  0.85422  0.93716  0.98302  1.0000
  H   H17       1.0  0.80645  0.94780  0.94911  1.0000
  H   H18       1.0  0.76386  0.03754  0.02423  1.0000
  H   H19       1.0  0.74464  0.99358  0.98954  1.0000
  H   H20       1.0  0.75984  0.98249  0.04609  1.0000
