data_image0
_chemical_formula_structural       COC4NCOC2SC4NCNC2H21
_chemical_formula_sum              "C15 O2 N3 S1 H21"
_cell_length_a       30
_cell_length_b       30
_cell_length_c       30
_cell_angle_alpha    90
_cell_angle_beta     90
_cell_angle_gamma    90

_space_group_name_H-M_alt    "P 1"
_space_group_IT_number       1

loop_
  _space_group_symop_operation_xyz
  'x, y, z'

loop_
  _atom_site_type_symbol
  _atom_site_label
  _atom_site_symmetry_multiplicity
  _atom_site_fract_x
  _atom_site_fract_y
  _atom_site_fract_z
  _atom_site_occupancy
  C   C1        1.0  0.15211  0.99501  0.06832  1.0000
  O   O1        1.0  0.10632  0.00623  0.06175  1.0000
  C   C2        1.0  0.09217  0.99177  0.02034  1.0000
  C   C3        1.0  0.06117  0.95996  0.01671  1.0000
  C   C4        1.0  0.04282  0.94310  0.97341  1.0000
  C   C5        1.0  0.00908  0.97334  0.94876  1.0000
  N   N1        1.0  0.97161  0.98626  0.97666  1.0000
  C   C6        1.0  0.96961  0.02704  0.99776  1.0000
  O   O2        1.0  0.99791  0.05635  0.99272  1.0000
  C   C7        1.0  0.93040  0.03348  0.02989  1.0000
  C   C8        1.0  0.93642  0.00418  0.07111  1.0000
  S   S1        1.0  0.89943  0.95654  0.06312  1.0000
  C   C9        1.0  0.86685  0.98429  0.02363  1.0000
  C   C10       1.0  0.82347  0.96380  0.00985  1.0000
  C   C11       1.0  0.88571  0.02226  0.00893  1.0000
  C   C12       1.0  0.86752  0.05420  0.97521  1.0000
  N   N2        1.0  0.07907  0.92823  0.94446  1.0000
  C   C13       1.0  0.10977  0.95500  0.93151  1.0000
  N   N3        1.0  0.11345  0.99950  0.93988  1.0000
  C   C14       1.0  0.10619  0.01615  0.97905  1.0000
  C   C15       1.0  0.11298  0.06593  0.98384  1.0000
  H   H1        1.0  0.17373  0.01283  0.04489  1.0000
  H   H2        1.0  0.16143  0.00509  0.10213  1.0000
  H   H3        1.0  0.15721  0.95897  0.06534  1.0000
  H   H4        1.0  0.04867  0.94429  0.04684  1.0000
  H   H5        1.0  0.02434  0.91266  0.98219  1.0000
  H   H6        1.0  0.99505  0.95511  0.92034  1.0000
  H   H7        1.0  0.02489  0.00337  0.93523  1.0000
  H   H8        1.0  0.94840  0.96286  0.98421  1.0000
  H   H9        1.0  0.93066  0.06854  0.04024  1.0000
  H   H10       1.0  0.97076  0.99300  0.07628  1.0000
  H   H11       1.0  0.92544  0.02193  0.10102  1.0000
  H   H12       1.0  0.80761  0.98126  0.98208  1.0000
  H   H13       1.0  0.79994  0.96384  0.03778  1.0000
  H   H14       1.0  0.82844  0.92923  0.99916  1.0000
  H   H15       1.0  0.88993  0.05646  0.94651  1.0000
  H   H16       1.0  0.86437  0.08738  0.98993  1.0000
  H   H17       1.0  0.83462  0.04456  0.96287  1.0000
  H   H18       1.0  0.13605  0.94123  0.90973  1.0000
  H   H19       1.0  0.10000  0.08301  0.95428  1.0000
  H   H20       1.0  0.09576  0.07891  0.01322  1.0000
  H   H21       1.0  0.14865  0.07286  0.98676  1.0000
