data_image0
_chemical_formula_structural       COC6OCOC2NCOC2H17
_chemical_formula_sum              "C13 O4 N1 H17"
_cell_length_a       30
_cell_length_b       30
_cell_length_c       30
_cell_angle_alpha    90
_cell_angle_beta     90
_cell_angle_gamma    90

_space_group_name_H-M_alt    "P 1"
_space_group_IT_number       1

loop_
  _space_group_symop_operation_xyz
  'x, y, z'

loop_
  _atom_site_type_symbol
  _atom_site_label
  _atom_site_symmetry_multiplicity
  _atom_site_fract_x
  _atom_site_fract_y
  _atom_site_fract_z
  _atom_site_occupancy
  C   C1        1.0  0.93776  0.96812  0.06982  1.0000
  O   O1        1.0  0.91005  0.98852  0.03725  1.0000
  C   C2        1.0  0.92867  0.98821  0.99300  1.0000
  C   C3        1.0  0.89044  0.99996  0.96094  1.0000
  C   C4        1.0  0.88701  0.05009  0.95330  1.0000
  C   C5        1.0  0.92934  0.06883  0.93197  1.0000
  C   C6        1.0  0.97111  0.04190  0.94305  1.0000
  C   C7        1.0  0.96841  0.02105  0.98948  1.0000
  O   O2        1.0  0.00884  0.99612  0.99793  1.0000
  C   C8        1.0  0.04424  0.01989  0.01310  1.0000
  O   O3        1.0  0.04461  0.06008  0.01982  1.0000
  C   C9        1.0  0.08368  0.99056  0.02106  1.0000
  C   C10       1.0  0.08283  0.94657  0.01240  1.0000
  N   N1        1.0  0.11970  0.92039  0.02011  1.0000
  C   C11       1.0  0.15939  0.93612  0.03675  1.0000
  O   O4        1.0  0.19174  0.91214  0.04334  1.0000
  C   C12       1.0  0.16078  0.98463  0.04641  1.0000
  C   C13       1.0  0.12461  0.00979  0.03874  1.0000
  H   H1        1.0  0.91880  0.96566  0.10085  1.0000
  H   H2        1.0  0.94744  0.93451  0.05951  1.0000
  H   H3        1.0  0.96729  0.98844  0.07627  1.0000
  H   H4        1.0  0.93931  0.95396  0.98570  1.0000
  H   H5        1.0  0.85862  0.98743  0.97381  1.0000
  H   H6        1.0  0.89622  0.98363  0.92872  1.0000
  H   H7        1.0  0.85825  0.05774  0.93212  1.0000
  H   H8        1.0  0.88109  0.06679  0.98530  1.0000
  H   H9        1.0  0.93364  0.10346  0.94288  1.0000
  H   H10       1.0  0.92545  0.06998  0.89564  1.0000
  H   H11       1.0  0.97572  0.01537  0.91823  1.0000
  H   H12       1.0  0.00067  0.06314  0.93983  1.0000
  H   H13       1.0  0.96466  0.04714  0.01490  1.0000
  H   H14       1.0  0.05395  0.92928  0.99913  1.0000
  H   H15       1.0  0.11881  0.88728  0.01347  1.0000
  H   H16       1.0  0.19165  0.99789  0.05950  1.0000
  H   H17       1.0  0.12522  0.04534  0.04565  1.0000
