data_image0
_chemical_formula_structural       COC5NCON2CONC5ClC7H25
_chemical_formula_sum              "C20 O3 N4 Cl1 H25"
_cell_length_a       30
_cell_length_b       30
_cell_length_c       30
_cell_angle_alpha    90
_cell_angle_beta     90
_cell_angle_gamma    90

_space_group_name_H-M_alt    "P 1"
_space_group_IT_number       1

loop_
  _space_group_symop_operation_xyz
  'x, y, z'

loop_
  _atom_site_type_symbol
  _atom_site_label
  _atom_site_symmetry_multiplicity
  _atom_site_fract_x
  _atom_site_fract_y
  _atom_site_fract_z
  _atom_site_occupancy
  C   C1        1.0  0.76244  0.11311  0.02671  1.0000
  O   O1        1.0  0.78807  0.08358  0.05350  1.0000
  C   C2        1.0  0.81877  0.05768  0.03196  1.0000
  C   C3        1.0  0.84368  0.02986  0.05969  1.0000
  C   C4        1.0  0.87630  0.00157  0.04213  1.0000
  C   C5        1.0  0.88471  0.00056  0.99617  1.0000
  C   C6        1.0  0.91941  0.96993  0.97516  1.0000
  N   N1        1.0  0.95908  0.96522  0.00276  1.0000
  C   C7        1.0  0.99280  0.99601  0.00109  1.0000
  O   O2        1.0  0.99508  0.02734  0.97492  1.0000
  N   N2        1.0  0.02517  0.98770  0.03284  1.0000
  N   N3        1.0  0.06457  0.01406  0.02875  1.0000
  C   C8        1.0  0.10383  0.99005  0.02281  1.0000
  O   O3        1.0  0.10456  0.94937  0.02683  1.0000
  N   N4        1.0  0.13899  0.01810  0.01340  1.0000
  C   C9        1.0  0.18368  0.00664  0.00343  1.0000
  C   C10       1.0  0.19678  0.96218  0.99760  1.0000
  C   C11       1.0  0.24091  0.95117  0.98803  1.0000
  C   C12       1.0  0.27264  0.98461  0.98408  1.0000
  C   C13       1.0  0.26031  0.02919  0.98941  1.0000
  Cl  Cl1       1.0  0.30246  0.06823  0.98399  1.0000
  C   C14       1.0  0.21578  0.04111  0.99881  1.0000
  C   C15       1.0  0.20231  0.08925  0.00447  1.0000
  C   C16       1.0  0.89950  0.92406  0.96164  1.0000
  C   C17       1.0  0.88598  0.89450  0.00105  1.0000
  C   C18       1.0  0.93200  0.89845  0.93159  1.0000
  C   C19       1.0  0.85933  0.02859  0.96854  1.0000
  C   C20       1.0  0.82673  0.05694  0.98623  1.0000
  H   H1        1.0  0.74187  0.09471  0.00283  1.0000
  H   H2        1.0  0.73999  0.13154  0.04878  1.0000
  H   H3        1.0  0.78377  0.13742  0.00979  1.0000
  H   H4        1.0  0.83765  0.03022  0.09543  1.0000
  H   H5        1.0  0.89474  0.98044  0.06501  1.0000
  H   H6        1.0  0.93044  0.98635  0.94432  1.0000
  H   H7        1.0  0.95546  0.94980  0.03239  1.0000
  H   H8        1.0  0.03224  0.95481  0.03791  1.0000
  H   H9        1.0  0.05995  0.04017  0.00743  1.0000
  H   H10       1.0  0.13210  0.05066  0.01803  1.0000
  H   H11       1.0  0.17317  0.93487  0.00022  1.0000
  H   H12       1.0  0.25034  0.91643  0.98377  1.0000
  H   H13       1.0  0.30702  0.97576  0.97677  1.0000
  H   H14       1.0  0.17494  0.09737  0.98169  1.0000
  H   H15       1.0  0.22890  0.11300  0.99713  1.0000
  H   H16       1.0  0.19168  0.09522  0.03889  1.0000
  H   H17       1.0  0.86929  0.93017  0.94184  1.0000
  H   H18       1.0  0.87209  0.86291  0.98909  1.0000
  H   H19       1.0  0.91442  0.88654  0.02246  1.0000
  H   H20       1.0  0.86028  0.91036  0.02147  1.0000
  H   H21       1.0  0.96262  0.88955  0.94938  1.0000
  H   H22       1.0  0.94117  0.91838  0.90242  1.0000
  H   H23       1.0  0.91675  0.86756  0.91950  1.0000
  H   H24       1.0  0.86497  0.02877  0.93269  1.0000
  H   H25       1.0  0.80830  0.07796  0.96331  1.0000
