data_image0
_chemical_formula_structural       COC4NCOC10SO2CSH23
_chemical_formula_sum              "C17 O4 N1 S2 H23"
_cell_length_a       30
_cell_length_b       30
_cell_length_c       30
_cell_angle_alpha    90
_cell_angle_beta     90
_cell_angle_gamma    90

_space_group_name_H-M_alt    "P 1"
_space_group_IT_number       1

loop_
  _space_group_symop_operation_xyz
  'x, y, z'

loop_
  _atom_site_type_symbol
  _atom_site_label
  _atom_site_symmetry_multiplicity
  _atom_site_fract_x
  _atom_site_fract_y
  _atom_site_fract_z
  _atom_site_occupancy
  C   C1        1.0  0.89171  0.13962  0.95997  1.0000
  O   O1        1.0  0.91442  0.11593  0.99412  1.0000
  C   C2        1.0  0.92117  0.07239  0.98707  1.0000
  C   C3        1.0  0.91106  0.04519  0.95132  1.0000
  C   C4        1.0  0.92440  0.00001  0.95807  1.0000
  C   C5        1.0  0.94585  0.99403  0.99820  1.0000
  N   N1        1.0  0.96052  0.95460  0.01855  1.0000
  C   C6        1.0  0.00312  0.95126  0.03808  1.0000
  O   O2        1.0  0.01405  0.91777  0.05947  1.0000
  C   C7        1.0  0.03718  0.98851  0.03074  1.0000
  C   C8        1.0  0.08508  0.97183  0.03726  1.0000
  C   C9        1.0  0.12214  0.00562  0.02767  1.0000
  C   C10       1.0  0.11952  0.04927  0.05370  1.0000
  C   C11       1.0  0.15255  0.07974  0.02978  1.0000
  C   C12       1.0  0.15642  0.06182  0.98219  1.0000
  C   C13       1.0  0.12489  0.02199  0.97955  1.0000
  C   C14       1.0  0.93497  0.91256  0.01588  1.0000
  C   C15       1.0  0.94521  0.88912  0.97267  1.0000
  C   C16       1.0  0.91020  0.87576  0.94857  1.0000
  S   S1        1.0  0.86048  0.89011  0.97380  1.0000
  O   O3        1.0  0.83820  0.92318  0.94654  1.0000
  O   O4        1.0  0.83807  0.84997  0.98850  1.0000
  C   C17       1.0  0.88436  0.91716  0.02114  1.0000
  S   S2        1.0  0.94619  0.04213  0.02860  1.0000
  H   H1        1.0  0.91061  0.13889  0.92875  1.0000
  H   H2        1.0  0.88866  0.17440  0.97048  1.0000
  H   H3        1.0  0.85807  0.12632  0.95501  1.0000
  H   H4        1.0  0.89442  0.05663  0.92140  1.0000
  H   H5        1.0  0.91881  0.97406  0.93366  1.0000
  H   H6        1.0  0.03058  0.01463  0.05526  1.0000
  H   H7        1.0  0.03355  0.00162  0.99696  1.0000
  H   H8        1.0  0.09044  0.94245  0.01611  1.0000
  H   H9        1.0  0.08889  0.96025  0.07178  1.0000
  H   H10       1.0  0.15395  0.98934  0.03587  1.0000
  H   H11       1.0  0.08622  0.06412  0.05185  1.0000
  H   H12       1.0  0.12797  0.04498  0.08892  1.0000
  H   H13       1.0  0.14131  0.11445  0.03031  1.0000
  H   H14       1.0  0.18518  0.07855  0.04616  1.0000
  H   H15       1.0  0.14798  0.08718  0.95736  1.0000
  H   H16       1.0  0.19079  0.05123  0.97576  1.0000
  H   H17       1.0  0.13728  0.99630  0.95682  1.0000
  H   H18       1.0  0.09244  0.03322  0.96719  1.0000
  H   H19       1.0  0.94608  0.89044  0.04278  1.0000
  H   H20       1.0  0.97932  0.88250  0.96276  1.0000
  H   H21       1.0  0.91091  0.85797  0.91735  1.0000
  H   H22       1.0  0.87277  0.89953  0.05093  1.0000
  H   H23       1.0  0.87202  0.95136  0.02263  1.0000
