data_image0
_chemical_formula_structural       COC4NSO2C4OC2SCO2C4H19
_chemical_formula_sum              "C16 O6 N1 S2 H19"
_cell_length_a       30
_cell_length_b       30
_cell_length_c       30
_cell_angle_alpha    90
_cell_angle_beta     90
_cell_angle_gamma    90

_space_group_name_H-M_alt    "P 1"
_space_group_IT_number       1

loop_
  _space_group_symop_operation_xyz
  'x, y, z'

loop_
  _atom_site_type_symbol
  _atom_site_label
  _atom_site_symmetry_multiplicity
  _atom_site_fract_x
  _atom_site_fract_y
  _atom_site_fract_z
  _atom_site_occupancy
  C   C1        1.0  0.12077  0.04831  0.87383  1.0000
  O   O1        1.0  0.10495  0.00364  0.87367  1.0000
  C   C2        1.0  0.10323  0.98213  0.91380  1.0000
  C   C3        1.0  0.11462  0.00026  0.95508  1.0000
  C   C4        1.0  0.11116  0.97441  0.99378  1.0000
  C   C5        1.0  0.09621  0.93044  0.99130  1.0000
  N   N1        1.0  0.09204  0.90539  0.03129  1.0000
  S   S1        1.0  0.04141  0.88707  0.04765  1.0000
  O   O2        1.0  0.02331  0.85738  0.01424  1.0000
  O   O3        1.0  0.04659  0.87290  0.09351  1.0000
  C   C6        1.0  0.00879  0.93661  0.04804  1.0000
  C   C7        1.0  0.98225  0.94729  0.01132  1.0000
  C   C8        1.0  0.95645  0.98615  0.01178  1.0000
  C   C9        1.0  0.95678  0.01402  0.04898  1.0000
  O   O4        1.0  0.93332  0.05262  0.05432  1.0000
  C   C10       1.0  0.90886  0.07076  0.01722  1.0000
  C   C11       1.0  0.90909  0.12127  0.02390  1.0000
  S   S2        1.0  0.85175  0.05061  0.01249  1.0000
  C   C12       1.0  0.83475  0.04279  0.06869  1.0000
  O   O5        1.0  0.82408  0.08570  0.99386  1.0000
  O   O6        1.0  0.85235  0.00706  0.99137  1.0000
  C   C13       1.0  0.98289  0.00246  0.08592  1.0000
  C   C14       1.0  0.00885  0.96384  0.08574  1.0000
  C   C15       1.0  0.08502  0.91214  0.95016  1.0000
  C   C16       1.0  0.08849  0.93801  0.91161  1.0000
  H   H1        1.0  0.12051  0.06036  0.83941  1.0000
  H   H2        1.0  0.09879  0.06996  0.89334  1.0000
  H   H3        1.0  0.15515  0.05007  0.88595  1.0000
  H   H4        1.0  0.12622  0.03435  0.95836  1.0000
  H   H5        1.0  0.11994  0.98921  0.02564  1.0000
  H   H6        1.0  0.11176  0.91371  0.05762  1.0000
  H   H7        1.0  0.98137  0.92566  0.98218  1.0000
  H   H8        1.0  0.93626  0.99284  0.98250  1.0000
  H   H9        1.0  0.92541  0.06404  0.98537  1.0000
  H   H10       1.0  0.89347  0.13865  0.99590  1.0000
  H   H11       1.0  0.94334  0.13349  0.02728  1.0000
  H   H12       1.0  0.89149  0.13056  0.05451  1.0000
  H   H13       1.0  0.83783  0.07434  0.08652  1.0000
  H   H14       1.0  0.85545  0.01711  0.08400  1.0000
  H   H15       1.0  0.79996  0.03203  0.06853  1.0000
  H   H16       1.0  0.98292  0.02376  0.11528  1.0000
  H   H17       1.0  0.02858  0.95528  0.11492  1.0000
  H   H18       1.0  0.07385  0.87777  0.94749  1.0000
  H   H19       1.0  0.07970  0.92355  0.87954  1.0000
