data_image0
_chemical_formula_structural       COC7ONC2SO2C8H19
_chemical_formula_sum              "C18 O4 N1 S1 H19"
_cell_length_a       30
_cell_length_b       30
_cell_length_c       30
_cell_angle_alpha    90
_cell_angle_beta     90
_cell_angle_gamma    90

_space_group_name_H-M_alt    "P 1"
_space_group_IT_number       1

loop_
  _space_group_symop_operation_xyz
  'x, y, z'

loop_
  _atom_site_type_symbol
  _atom_site_label
  _atom_site_symmetry_multiplicity
  _atom_site_fract_x
  _atom_site_fract_y
  _atom_site_fract_z
  _atom_site_occupancy
  C   C1        1.0  0.16949  0.10150  0.97207  1.0000
  O   O1        1.0  0.12459  0.08657  0.97487  1.0000
  C   C2        1.0  0.11795  0.04264  0.98518  1.0000
  C   C3        1.0  0.15115  0.01123  0.99316  1.0000
  C   C4        1.0  0.13955  0.96735  0.00331  1.0000
  C   C5        1.0  0.09468  0.95450  0.00511  1.0000
  C   C6        1.0  0.08248  0.90779  0.01824  1.0000
  C   C7        1.0  0.04067  0.89368  0.99390  1.0000
  C   C8        1.0  0.00353  0.92693  0.00071  1.0000
  O   O2        1.0  0.96448  0.91435  0.00287  1.0000
  N   N1        1.0  0.01545  0.97190  0.00043  1.0000
  C   C9        1.0  0.97915  0.00455  0.00207  1.0000
  C   C10       1.0  0.95875  0.01228  0.95639  1.0000
  S   S1        1.0  0.91518  0.05212  0.95816  1.0000
  O   O3        1.0  0.93247  0.09180  0.97979  1.0000
  O   O4        1.0  0.89562  0.05489  0.91401  1.0000
  C   C11       1.0  0.87402  0.02855  0.99355  1.0000
  C   C12       1.0  0.86455  0.04836  0.03464  1.0000
  C   C13       1.0  0.83234  0.02932  0.06222  1.0000
  C   C14       1.0  0.80973  0.99098  0.04865  1.0000
  C   C15       1.0  0.81904  0.97163  0.00736  1.0000
  C   C16       1.0  0.85115  0.99046  0.97953  1.0000
  C   C17       1.0  0.06085  0.98588  0.99742  1.0000
  C   C18       1.0  0.07309  0.02987  0.98753  1.0000
  H   H1        1.0  0.16894  0.13697  0.96362  1.0000
  H   H2        1.0  0.18753  0.08405  0.94557  1.0000
  H   H3        1.0  0.18654  0.09800  0.00416  1.0000
  H   H4        1.0  0.18627  0.01976  0.99194  1.0000
  H   H5        1.0  0.16581  0.94323  0.00999  1.0000
  H   H6        1.0  0.07732  0.90681  0.05442  1.0000
  H   H7        1.0  0.10950  0.88456  0.01015  1.0000
  H   H8        1.0  0.02974  0.86110  0.00627  1.0000
  H   H9        1.0  0.04659  0.89075  0.95795  1.0000
  H   H10       1.0  0.95368  0.99160  0.02488  1.0000
  H   H11       1.0  0.99056  0.03552  0.01764  1.0000
  H   H12       1.0  0.94531  0.98155  0.94203  1.0000
  H   H13       1.0  0.98369  0.02516  0.93303  1.0000
  H   H14       1.0  0.88179  0.07839  0.04538  1.0000
  H   H15       1.0  0.82471  0.04441  0.09429  1.0000
  H   H16       1.0  0.78461  0.97623  0.07023  1.0000
  H   H17       1.0  0.80114  0.94191  0.99687  1.0000
  H   H18       1.0  0.85789  0.97543  0.94724  1.0000
  H   H19       1.0  0.04840  0.05545  0.98075  1.0000
