data_image0
_chemical_formula_structural       COCNC5ONC4NC4FC5FH17
_chemical_formula_sum              "C20 O2 N3 F2 H17"
_cell_length_a       30
_cell_length_b       30
_cell_length_c       30
_cell_angle_alpha    90
_cell_angle_beta     90
_cell_angle_gamma    90

_space_group_name_H-M_alt    "P 1"
_space_group_IT_number       1

loop_
  _space_group_symop_operation_xyz
  'x, y, z'

loop_
  _atom_site_type_symbol
  _atom_site_label
  _atom_site_symmetry_multiplicity
  _atom_site_fract_x
  _atom_site_fract_y
  _atom_site_fract_z
  _atom_site_occupancy
  C   C1        1.0  0.84147  0.90180  0.02755  1.0000
  O   O1        1.0  0.87172  0.93846  0.02723  1.0000
  C   C2        1.0  0.86075  0.97198  0.05688  1.0000
  N   N1        1.0  0.82319  0.96665  0.08160  1.0000
  C   C3        1.0  0.81252  0.99946  0.11046  1.0000
  C   C4        1.0  0.83762  0.03767  0.11598  1.0000
  C   C5        1.0  0.87599  0.04250  0.09032  1.0000
  C   C6        1.0  0.88845  0.00926  0.05983  1.0000
  C   C7        1.0  0.93009  0.01663  0.03329  1.0000
  O   O2        1.0  0.95095  0.05131  0.03959  1.0000
  N   N2        1.0  0.94210  0.98374  0.00348  1.0000
  C   C8        1.0  0.97950  0.98244  0.97494  1.0000
  C   C9        1.0  0.01181  0.01583  0.97235  1.0000
  C   C10       1.0  0.04829  0.01201  0.94293  1.0000
  C   C11       1.0  0.08334  0.04870  0.94171  1.0000
  N   N3        1.0  0.09547  0.06025  0.89568  1.0000
  C   C12       1.0  0.12404  0.03729  0.96985  1.0000
  C   C13       1.0  0.12506  0.04950  0.01514  1.0000
  C   C14       1.0  0.16167  0.03877  0.04181  1.0000
  C   C15       1.0  0.19732  0.01561  0.02345  1.0000
  F   F1        1.0  0.23240  0.00533  0.04908  1.0000
  C   C16       1.0  0.19705  0.00286  0.97896  1.0000
  C   C17       1.0  0.16046  0.01354  0.95225  1.0000
  C   C18       1.0  0.05193  0.97368  0.91622  1.0000
  C   C19       1.0  0.01982  0.94020  0.91850  1.0000
  C   C20       1.0  0.98410  0.94486  0.94765  1.0000
  F   F2        1.0  0.95341  0.91232  0.94954  1.0000
  H   H1        1.0  0.84089  0.88543  0.06018  1.0000
  H   H2        1.0  0.85340  0.87745  0.00315  1.0000
  H   H3        1.0  0.80798  0.91219  0.01736  1.0000
  H   H4        1.0  0.78227  0.99402  0.12962  1.0000
  H   H5        1.0  0.82769  0.06315  0.13964  1.0000
  H   H6        1.0  0.89621  0.07238  0.09421  1.0000
  H   H7        1.0  0.92187  0.95654  0.00132  1.0000
  H   H8        1.0  0.00950  0.04534  0.99316  1.0000
  H   H9        1.0  0.06850  0.07919  0.95555  1.0000
  H   H10       1.0  0.06735  0.07066  0.87975  1.0000
  H   H11       1.0  0.11620  0.08712  0.89676  1.0000
  H   H12       1.0  0.09713  0.06729  0.02998  1.0000
  H   H13       1.0  0.16250  0.04816  0.07673  1.0000
  H   H14       1.0  0.22515  0.98463  0.96533  1.0000
  H   H15       1.0  0.16037  0.00323  0.91747  1.0000
  H   H16       1.0  0.07998  0.96997  0.89351  1.0000
  H   H17       1.0  0.02249  0.91060  0.89789  1.0000
