data_image0
_chemical_formula_structural       COC2NC2NC7FC3OC6H25
_chemical_formula_sum              "C21 O2 N2 F1 H25"
_cell_length_a       30
_cell_length_b       30
_cell_length_c       30
_cell_angle_alpha    90
_cell_angle_beta     90
_cell_angle_gamma    90

_space_group_name_H-M_alt    "P 1"
_space_group_IT_number       1

loop_
  _space_group_symop_operation_xyz
  'x, y, z'

loop_
  _atom_site_type_symbol
  _atom_site_label
  _atom_site_symmetry_multiplicity
  _atom_site_fract_x
  _atom_site_fract_y
  _atom_site_fract_z
  _atom_site_occupancy
  C   C1        1.0  0.17712  0.89537  0.00418  1.0000
  O   O1        1.0  0.16702  0.93801  0.02207  1.0000
  C   C2        1.0  0.14120  0.96434  0.99217  1.0000
  C   C3        1.0  0.09133  0.95112  0.99092  1.0000
  N   N1        1.0  0.06496  0.99236  0.98507  1.0000
  C   C4        1.0  0.01764  0.99097  0.99736  1.0000
  C   C5        1.0  0.98941  0.01582  0.96216  1.0000
  N   N2        1.0  0.94075  0.01221  0.96973  1.0000
  C   C6        1.0  0.92650  0.04138  0.00667  1.0000
  C   C7        1.0  0.89142  0.01977  0.03565  1.0000
  C   C8        1.0  0.84644  0.03215  0.03251  1.0000
  C   C9        1.0  0.81428  0.01191  0.05948  1.0000
  C   C10       1.0  0.82664  0.97911  0.08999  1.0000
  C   C11       1.0  0.87120  0.96652  0.09347  1.0000
  C   C12       1.0  0.90306  0.98678  0.06644  1.0000
  F   F1        1.0  0.94575  0.97429  0.07088  1.0000
  C   C13       1.0  0.91797  0.02541  0.92826  1.0000
  C   C14       1.0  0.91452  0.98417  0.89796  1.0000
  C   C15       1.0  0.86532  0.98466  0.91058  1.0000
  O   O2        1.0  0.86992  0.02764  0.93187  1.0000
  C   C16       1.0  0.09244  0.02530  0.00430  1.0000
  C   C17       1.0  0.08088  0.06819  0.01705  1.0000
  C   C18       1.0  0.11362  0.09626  0.03487  1.0000
  C   C19       1.0  0.15770  0.08154  0.03963  1.0000
  C   C20       1.0  0.16958  0.03858  0.02656  1.0000
  C   C21       1.0  0.13669  0.01108  0.00917  1.0000
  H   H1        1.0  0.19632  0.89865  0.97334  1.0000
  H   H2        1.0  0.14665  0.87632  0.99803  1.0000
  H   H3        1.0  0.19733  0.87726  0.02851  1.0000
  H   H4        1.0  0.15598  0.96514  0.95871  1.0000
  H   H5        1.0  0.08480  0.92783  0.96355  1.0000
  H   H6        1.0  0.08186  0.93424  0.02205  1.0000
  H   H7        1.0  0.00647  0.95613  0.99811  1.0000
  H   H8        1.0  0.01254  0.00417  0.03102  1.0000
  H   H9        1.0  0.99947  0.05091  0.95973  1.0000
  H   H10       1.0  0.99782  0.00092  0.92977  1.0000
  H   H11       1.0  0.95440  0.04976  0.02883  1.0000
  H   H12       1.0  0.91488  0.07395  0.99457  1.0000
  H   H13       1.0  0.83615  0.05738  0.00856  1.0000
  H   H14       1.0  0.77952  0.02172  0.05646  1.0000
  H   H15       1.0  0.80160  0.96337  0.11090  1.0000
  H   H16       1.0  0.88142  0.94107  0.11705  1.0000
  H   H17       1.0  0.93100  0.05542  0.91195  1.0000
  H   H18       1.0  0.92088  0.99109  0.86272  1.0000
  H   H19       1.0  0.93242  0.95397  0.90777  1.0000
  H   H20       1.0  0.84203  0.98575  0.88258  1.0000
  H   H21       1.0  0.85493  0.95913  0.93446  1.0000
  H   H22       1.0  0.04712  0.08047  0.01352  1.0000
  H   H23       1.0  0.10478  0.12989  0.04509  1.0000
  H   H24       1.0  0.18272  0.10374  0.05356  1.0000
  H   H25       1.0  0.20357  0.02675  0.03013  1.0000
