data_image0
_chemical_formula_structural       COC6OC6NCH19
_chemical_formula_sum              "C14 O2 N1 H19"
_cell_length_a       30
_cell_length_b       30
_cell_length_c       30
_cell_angle_alpha    90
_cell_angle_beta     90
_cell_angle_gamma    90

_space_group_name_H-M_alt    "P 1"
_space_group_IT_number       1

loop_
  _space_group_symop_operation_xyz
  'x, y, z'

loop_
  _atom_site_type_symbol
  _atom_site_label
  _atom_site_symmetry_multiplicity
  _atom_site_fract_x
  _atom_site_fract_y
  _atom_site_fract_z
  _atom_site_occupancy
  C   C1        1.0  0.13538  0.03366  0.06382  1.0000
  O   O1        1.0  0.09557  0.03662  0.03839  1.0000
  C   C2        1.0  0.08611  0.00204  0.01001  1.0000
  C   C3        1.0  0.11393  0.96545  0.00248  1.0000
  C   C4        1.0  0.10110  0.93186  0.97289  1.0000
  C   C5        1.0  0.06033  0.93443  0.95077  1.0000
  C   C6        1.0  0.03188  0.97072  0.95792  1.0000
  C   C7        1.0  0.04534  0.00472  0.98704  1.0000
  O   O2        1.0  0.01834  0.04068  0.99614  1.0000
  C   C8        1.0  0.98729  0.05048  0.96149  1.0000
  C   C9        1.0  0.95758  0.01076  0.94981  1.0000
  C   C10       1.0  0.92491  0.99555  0.98681  1.0000
  C   C11       1.0  0.89013  0.03045  0.99964  1.0000
  C   C12       1.0  0.87344  0.01327  0.04406  1.0000
  C   C13       1.0  0.91575  0.99618  0.06572  1.0000
  N   N1        1.0  0.94432  0.98050  0.02923  1.0000
  C   C14       1.0  0.98791  0.97271  0.93384  1.0000
  H   H1        1.0  0.16481  0.03406  0.04224  1.0000
  H   H2        1.0  0.13707  0.06305  0.08535  1.0000
  H   H3        1.0  0.13517  0.00418  0.08534  1.0000
  H   H4        1.0  0.14585  0.96201  0.01911  1.0000
  H   H5        1.0  0.12291  0.90347  0.96726  1.0000
  H   H6        1.0  0.05067  0.90782  0.92811  1.0000
  H   H7        1.0  0.96743  0.07904  0.97241  1.0000
  H   H8        1.0  0.00576  0.06192  0.93200  1.0000
  H   H9        1.0  0.93658  0.02055  0.92142  1.0000
  H   H10       1.0  0.90654  0.96676  0.97351  1.0000
  H   H11       1.0  0.86329  0.03298  0.97507  1.0000
  H   H12       1.0  0.90467  0.06359  0.00423  1.0000
  H   H13       1.0  0.84975  0.98591  0.03893  1.0000
  H   H14       1.0  0.85706  0.03920  0.06377  1.0000
  H   H15       1.0  0.93256  0.02339  0.08341  1.0000
  H   H16       1.0  0.90905  0.96953  0.08967  1.0000
  H   H17       1.0  0.97547  0.99382  0.03335  1.0000
  H   H18       1.0  0.97068  0.94057  0.93634  1.0000
  H   H19       1.0  0.99536  0.97809  0.89840  1.0000
