data_image0
_chemical_formula_structural       COC6NC6OC3OC5NCOH26
_chemical_formula_sum              "C22 O4 N2 H26"
_cell_length_a       30
_cell_length_b       30
_cell_length_c       30
_cell_angle_alpha    90
_cell_angle_beta     90
_cell_angle_gamma    90

_space_group_name_H-M_alt    "P 1"
_space_group_IT_number       1

loop_
  _space_group_symop_operation_xyz
  'x, y, z'

loop_
  _atom_site_type_symbol
  _atom_site_label
  _atom_site_symmetry_multiplicity
  _atom_site_fract_x
  _atom_site_fract_y
  _atom_site_fract_z
  _atom_site_occupancy
  C   C1        1.0  0.19122  0.88848  0.00918  1.0000
  O   O1        1.0  0.17126  0.92335  0.03431  1.0000
  C   C2        1.0  0.14326  0.95151  0.01193  1.0000
  C   C3        1.0  0.13162  0.94853  0.96705  1.0000
  C   C4        1.0  0.10212  0.97945  0.94842  1.0000
  C   C5        1.0  0.08414  0.01386  0.97441  1.0000
  C   C6        1.0  0.09639  0.01729  0.01913  1.0000
  C   C7        1.0  0.12526  0.98575  0.03783  1.0000
  N   N1        1.0  0.07642  0.04987  0.04690  1.0000
  C   C8        1.0  0.04450  0.03247  0.07909  1.0000
  C   C9        1.0  0.99666  0.03349  0.06073  1.0000
  C   C10       1.0  0.99035  0.01358  0.01328  1.0000
  C   C11       1.0  0.94151  0.99986  0.00781  1.0000
  C   C12       1.0  0.93061  0.95519  0.99957  1.0000
  C   C13       1.0  0.88628  0.94178  0.99433  1.0000
  O   O2        1.0  0.88095  0.89713  0.98645  1.0000
  C   C14       1.0  0.83658  0.88118  0.98173  1.0000
  C   C15       1.0  0.85214  0.97333  0.99726  1.0000
  C   C16       1.0  0.86230  0.01804  0.00542  1.0000
  O   O3        1.0  0.83221  0.05218  0.00896  1.0000
  C   C17       1.0  0.78632  0.04102  0.00516  1.0000
  C   C18       1.0  0.90677  0.03102  0.01060  1.0000
  C   C19       1.0  0.00308  0.04619  0.97480  1.0000
  C   C20       1.0  0.05134  0.04648  0.95520  1.0000
  C   C21       1.0  0.07272  0.09322  0.95546  1.0000
  N   N2        1.0  0.08943  0.10997  0.99782  1.0000
  C   C22       1.0  0.07407  0.09501  0.03780  1.0000
  O   O4        1.0  0.05924  0.12269  0.06423  1.0000
  H   H1        1.0  0.21207  0.90183  0.98235  1.0000
  H   H2        1.0  0.21283  0.86952  0.03163  1.0000
  H   H3        1.0  0.16597  0.86558  0.99612  1.0000
  H   H4        1.0  0.14464  0.92244  0.94566  1.0000
  H   H5        1.0  0.09309  0.97619  0.91345  1.0000
  H   H6        1.0  0.13438  0.98808  0.07283  1.0000
  H   H7        1.0  0.05321  0.99835  0.08883  1.0000
  H   H8        1.0  0.04611  0.05276  0.10946  1.0000
  H   H9        1.0  0.97584  0.01531  0.08475  1.0000
  H   H10       1.0  0.98437  0.06796  0.06115  1.0000
  H   H11       1.0  0.01005  0.98293  0.01064  1.0000
  H   H12       1.0  0.95678  0.93018  0.99717  1.0000
  H   H13       1.0  0.83821  0.84518  0.97612  1.0000
  H   H14       1.0  0.81725  0.88680  0.01218  1.0000
  H   H15       1.0  0.82023  0.89618  0.95275  1.0000
  H   H16       1.0  0.81781  0.96314  0.99314  1.0000
  H   H17       1.0  0.77615  0.01787  0.03148  1.0000
  H   H18       1.0  0.77877  0.02755  0.97208  1.0000
  H   H19       1.0  0.76701  0.07169  0.00930  1.0000
  H   H20       1.0  0.91407  0.06599  0.01691  1.0000
  H   H21       1.0  0.98159  0.03843  0.94607  1.0000
  H   H22       1.0  0.99314  0.08021  0.98399  1.0000
  H   H23       1.0  0.04719  0.03831  0.91969  1.0000
  H   H24       1.0  0.10130  0.09412  0.93266  1.0000
  H   H25       1.0  0.04870  0.11782  0.94301  1.0000
  H   H26       1.0  0.09051  0.14367  0.99888  1.0000
