data_image0
_chemical_formula_structural       COC4SO2C2NC2N2C7ClC4H24
_chemical_formula_sum              "C20 O3 S1 N3 Cl1 H24"
_cell_length_a       30
_cell_length_b       30
_cell_length_c       30
_cell_angle_alpha    90
_cell_angle_beta     90
_cell_angle_gamma    90

_space_group_name_H-M_alt    "P 1"
_space_group_IT_number       1

loop_
  _space_group_symop_operation_xyz
  'x, y, z'

loop_
  _atom_site_type_symbol
  _atom_site_label
  _atom_site_symmetry_multiplicity
  _atom_site_fract_x
  _atom_site_fract_y
  _atom_site_fract_z
  _atom_site_occupancy
  C   C1        1.0  0.71786  0.07480  0.94519  1.0000
  O   O1        1.0  0.72775  0.03807  0.97348  1.0000
  C   C2        1.0  0.76920  0.01952  0.96954  1.0000
  C   C3        1.0  0.80319  0.03422  0.94130  1.0000
  C   C4        1.0  0.84427  0.01217  0.94057  1.0000
  C   C5        1.0  0.85123  0.97553  0.96843  1.0000
  S   S1        1.0  0.90327  0.94714  0.96747  1.0000
  O   O2        1.0  0.89425  0.90053  0.97661  1.0000
  O   O3        1.0  0.92622  0.96045  0.92701  1.0000
  C   C6        1.0  0.93213  0.97062  0.01372  1.0000
  C   C7        1.0  0.97793  0.94909  0.01848  1.0000
  N   N1        1.0  0.00218  0.96621  0.05775  1.0000
  C   C8        1.0  0.02052  0.01165  0.05090  1.0000
  C   C9        1.0  0.06059  0.01478  0.01875  1.0000
  N   N2        1.0  0.09593  0.98289  0.03074  1.0000
  N   N3        1.0  0.13487  0.98468  0.00633  1.0000
  C   C10       1.0  0.15846  0.02059  0.01156  1.0000
  C   C11       1.0  0.20061  0.02766  0.98695  1.0000
  C   C12       1.0  0.21589  0.99406  0.95821  1.0000
  C   C13       1.0  0.25554  0.99955  0.93448  1.0000
  C   C14       1.0  0.28020  0.03859  0.93924  1.0000
  C   C15       1.0  0.26521  0.07219  0.96772  1.0000
  C   C16       1.0  0.22546  0.06690  0.99162  1.0000
  Cl  Cl1       1.0  0.20942  0.11042  0.02580  1.0000
  C   C17       1.0  0.07962  0.93726  0.03763  1.0000
  C   C18       1.0  0.03969  0.93619  0.06989  1.0000
  C   C19       1.0  0.81737  0.96018  0.99638  1.0000
  C   C20       1.0  0.77653  0.98247  0.99691  1.0000
  H   H1        1.0  0.68358  0.08523  0.95204  1.0000
  H   H2        1.0  0.71973  0.06521  0.91002  1.0000
  H   H3        1.0  0.73972  0.10315  0.95232  1.0000
  H   H4        1.0  0.79874  0.06260  0.91932  1.0000
  H   H5        1.0  0.87029  0.02370  0.91810  1.0000
  H   H6        1.0  0.93449  0.00648  0.00758  1.0000
  H   H7        1.0  0.91188  0.96477  0.04351  1.0000
  H   H8        1.0  0.97268  0.91311  0.02263  1.0000
  H   H9        1.0  0.99724  0.95299  0.98772  1.0000
  H   H10       1.0  0.99438  0.03472  0.04009  1.0000
  H   H11       1.0  0.03125  0.02400  0.08366  1.0000
  H   H12       1.0  0.05027  0.00779  0.98441  1.0000
  H   H13       1.0  0.07405  0.04868  0.01982  1.0000
  H   H14       1.0  0.14773  0.04659  0.03520  1.0000
  H   H15       1.0  0.19697  0.96335  0.95419  1.0000
  H   H16       1.0  0.26710  0.97329  0.91232  1.0000
  H   H17       1.0  0.31110  0.04289  0.92078  1.0000
  H   H18       1.0  0.28473  0.10255  0.97112  1.0000
  H   H19       1.0  0.07047  0.92332  0.00511  1.0000
  H   H20       1.0  0.10701  0.91739  0.05136  1.0000
  H   H21       1.0  0.02768  0.90185  0.07359  1.0000
  H   H22       1.0  0.05135  0.94609  0.10315  1.0000
  H   H23       1.0  0.82221  0.93109  0.01747  1.0000
  H   H24       1.0  0.74996  0.97074  0.01863  1.0000
