data_image0
_chemical_formula_structural       COC4OCNC5NC7ClC3H27
_chemical_formula_sum              "C21 O2 N2 Cl1 H27"
_cell_length_a       30
_cell_length_b       30
_cell_length_c       30
_cell_angle_alpha    90
_cell_angle_beta     90
_cell_angle_gamma    90

_space_group_name_H-M_alt    "P 1"
_space_group_IT_number       1

loop_
  _space_group_symop_operation_xyz
  'x, y, z'

loop_
  _atom_site_type_symbol
  _atom_site_label
  _atom_site_symmetry_multiplicity
  _atom_site_fract_x
  _atom_site_fract_y
  _atom_site_fract_z
  _atom_site_occupancy
  C   C1        1.0  0.17765  0.13033  0.03550  1.0000
  O   O1        1.0  0.16102  0.11567  0.99361  1.0000
  C   C2        1.0  0.13370  0.07921  0.99385  1.0000
  C   C3        1.0  0.12067  0.05495  0.03129  1.0000
  C   C4        1.0  0.09230  0.01804  0.02693  1.0000
  C   C5        1.0  0.07667  0.00518  0.98509  1.0000
  O   O2        1.0  0.04877  0.97036  0.97596  1.0000
  C   C6        1.0  0.02779  0.94669  0.01169  1.0000
  N   N1        1.0  0.99078  0.97210  0.03138  1.0000
  C   C7        1.0  0.95495  0.98158  0.99885  1.0000
  C   C8        1.0  0.91864  0.01439  0.01758  1.0000
  C   C9        1.0  0.94049  0.05762  0.03379  1.0000
  C   C10       1.0  0.97424  0.08240  0.00537  1.0000
  C   C11       1.0  0.93040  0.10381  0.01563  1.0000
  N   N2        1.0  0.88086  0.02469  0.98726  1.0000
  C   C12       1.0  0.84148  0.03852  0.01296  1.0000
  C   C13       1.0  0.86825  0.98788  0.95789  1.0000
  C   C14       1.0  0.01321  0.90030  0.99638  1.0000
  C   C15       1.0  0.01530  0.88686  0.95156  1.0000
  C   C16       1.0  0.00165  0.84421  0.93876  1.0000
  C   C17       1.0  0.98566  0.81433  0.97055  1.0000
  C   C18       1.0  0.98334  0.82723  0.01507  1.0000
  Cl  Cl1       1.0  0.96345  0.79046  0.05436  1.0000
  C   C19       1.0  0.99696  0.86973  0.02806  1.0000
  C   C20       1.0  0.08999  0.02939  0.94767  1.0000
  C   C21       1.0  0.11821  0.06616  0.95202  1.0000
  H   H1        1.0  0.19867  0.15954  0.02954  1.0000
  H   H2        1.0  0.19843  0.10470  0.05110  1.0000
  H   H3        1.0  0.15046  0.14054  0.05760  1.0000
  H   H4        1.0  0.13200  0.06376  0.06450  1.0000
  H   H5        1.0  0.08339  0.00030  0.05715  1.0000
  H   H6        1.0  0.05265  0.93997  0.03766  1.0000
  H   H7        1.0  0.00375  0.00201  0.04077  1.0000
  H   H8        1.0  0.96885  0.99555  0.96809  1.0000
  H   H9        1.0  0.93872  0.94997  0.99049  1.0000
  H   H10       1.0  0.90498  0.99757  0.04718  1.0000
  H   H11       1.0  0.94777  0.05543  0.06921  1.0000
  H   H12       1.0  0.00374  0.09555  0.02157  1.0000
  H   H13       1.0  0.97973  0.07216  0.97115  1.0000
  H   H14       1.0  0.90729  0.10776  0.98814  1.0000
  H   H15       1.0  0.92996  0.13131  0.03905  1.0000
  H   H16       1.0  0.84878  0.06659  0.03509  1.0000
  H   H17       1.0  0.82825  0.01125  0.03337  1.0000
  H   H18       1.0  0.81500  0.04984  0.99048  1.0000
  H   H19       1.0  0.89497  0.98013  0.93426  1.0000
  H   H20       1.0  0.83944  0.99708  0.93736  1.0000
  H   H21       1.0  0.85964  0.95766  0.97652  1.0000
  H   H22       1.0  0.02755  0.90962  0.92609  1.0000
  H   H23       1.0  0.00351  0.83434  0.90393  1.0000
  H   H24       1.0  0.97507  0.78121  0.96042  1.0000
  H   H25       1.0  0.99465  0.87952  0.06291  1.0000
  H   H26       1.0  0.07817  0.01979  0.91478  1.0000
  H   H27       1.0  0.12814  0.08474  0.92253  1.0000
