data_image0
_chemical_formula_structural       COC2BrC4ONC8FH21
_chemical_formula_sum              "C15 O2 Br1 N1 F1 H21"
_cell_length_a       30
_cell_length_b       30
_cell_length_c       30
_cell_angle_alpha    90
_cell_angle_beta     90
_cell_angle_gamma    90

_space_group_name_H-M_alt    "P 1"
_space_group_IT_number       1

loop_
  _space_group_symop_operation_xyz
  'x, y, z'

loop_
  _atom_site_type_symbol
  _atom_site_label
  _atom_site_symmetry_multiplicity
  _atom_site_fract_x
  _atom_site_fract_y
  _atom_site_fract_z
  _atom_site_occupancy
  C   C1        1.0  0.14048  0.00930  0.07147  1.0000
  O   O1        1.0  0.13368  0.04817  0.04523  1.0000
  C   C2        1.0  0.10287  0.04626  0.01153  1.0000
  C   C3        1.0  0.10106  0.08342  0.98295  1.0000
  Br  Br1       1.0  0.13955  0.13321  0.99092  1.0000
  C   C4        1.0  0.07101  0.08512  0.94724  1.0000
  C   C5        1.0  0.04191  0.04975  0.93979  1.0000
  C   C6        1.0  0.04266  0.01323  0.96862  1.0000
  C   C7        1.0  0.01271  0.97548  0.95971  1.0000
  O   O2        1.0  0.02017  0.95468  0.92521  1.0000
  N   N1        1.0  0.97810  0.96583  0.98942  1.0000
  C   C8        1.0  0.96579  0.99410  0.02761  1.0000
  C   C9        1.0  0.92176  0.01970  0.02081  1.0000
  C   C10       1.0  0.90818  0.04255  0.06434  1.0000
  C   C11       1.0  0.92540  0.05431  0.98356  1.0000
  C   C12       1.0  0.95085  0.92540  0.98232  1.0000
  C   C13       1.0  0.97859  0.88271  0.98574  1.0000
  C   C14       1.0  0.92394  0.92681  0.93902  1.0000
  C   C15       1.0  0.07326  0.01106  0.00367  1.0000
  F   F1        1.0  0.07304  0.97486  0.02997  1.0000
  H   H1        1.0  0.16831  0.01596  0.09408  1.0000
  H   H2        1.0  0.14975  0.98071  0.05077  1.0000
  H   H3        1.0  0.11117  0.00215  0.09198  1.0000
  H   H4        1.0  0.07033  0.11374  0.92499  1.0000
  H   H5        1.0  0.01893  0.05046  0.91175  1.0000
  H   H6        1.0  0.96330  0.97205  0.05668  1.0000
  H   H7        1.0  0.99211  0.01803  0.03529  1.0000
  H   H8        1.0  0.89520  0.99624  0.01188  1.0000
  H   H9        1.0  0.87645  0.06017  0.06040  1.0000
  H   H10       1.0  0.93332  0.06679  0.07501  1.0000
  H   H11       1.0  0.90402  0.01805  0.09108  1.0000
  H   H12       1.0  0.89394  0.07244  0.97970  1.0000
  H   H13       1.0  0.95157  0.07874  0.99067  1.0000
  H   H14       1.0  0.93288  0.03856  0.95153  1.0000
  H   H15       1.0  0.92661  0.92393  0.00969  1.0000
  H   H16       1.0  0.00239  0.87942  0.95830  1.0000
  H   H17       1.0  0.95695  0.85331  0.98512  1.0000
  H   H18       1.0  0.99750  0.88212  0.01697  1.0000
  H   H19       1.0  0.94513  0.92491  0.90941  1.0000
  H   H20       1.0  0.90446  0.95757  0.93675  1.0000
  H   H21       1.0  0.90068  0.89870  0.93759  1.0000
