data_image0
_chemical_formula_structural       COC5NC5O2C2NC2BrC3H17
_chemical_formula_sum              "C18 O3 N2 Br1 H17"
_cell_length_a       30
_cell_length_b       30
_cell_length_c       30
_cell_angle_alpha    90
_cell_angle_beta     90
_cell_angle_gamma    90

_space_group_name_H-M_alt    "P 1"
_space_group_IT_number       1

loop_
  _space_group_symop_operation_xyz
  'x, y, z'

loop_
  _atom_site_type_symbol
  _atom_site_label
  _atom_site_symmetry_multiplicity
  _atom_site_fract_x
  _atom_site_fract_y
  _atom_site_fract_z
  _atom_site_occupancy
  C   C1        1.0  0.99442  0.19877  0.94395  1.0000
  O   O1        1.0  0.99722  0.17985  0.98732  1.0000
  C   C2        1.0  0.99143  0.13475  0.99053  1.0000
  C   C3        1.0  0.98392  0.10552  0.95521  1.0000
  C   C4        1.0  0.97860  0.05984  0.96322  1.0000
  C   C5        1.0  0.98059  0.04255  0.00667  1.0000
  C   C6        1.0  0.97567  0.99277  0.01633  1.0000
  N   N1        1.0  0.01888  0.97180  0.02490  1.0000
  C   C7        1.0  0.04552  0.96518  0.98465  1.0000
  C   C8        1.0  0.08943  0.94523  0.99656  1.0000
  C   C9        1.0  0.12986  0.96323  0.00916  1.0000
  C   C10       1.0  0.15907  0.92682  0.01606  1.0000
  C   C11       1.0  0.13468  0.88903  0.00724  1.0000
  O   O2        1.0  0.09240  0.89985  0.99531  1.0000
  O   O3        1.0  0.95106  0.97195  0.98101  1.0000
  C   C12       1.0  0.92756  0.93415  0.99043  1.0000
  C   C13       1.0  0.89446  0.92268  0.95997  1.0000
  N   N2        1.0  0.86786  0.88633  0.96342  1.0000
  C   C14       1.0  0.87511  0.85971  0.99907  1.0000
  C   C15       1.0  0.90756  0.86800  0.03092  1.0000
  Br  Br1       1.0  0.91559  0.82873  0.07938  1.0000
  C   C16       1.0  0.93427  0.90575  0.02652  1.0000
  C   C17       1.0  0.98825  0.07234  0.04196  1.0000
  C   C18       1.0  0.99357  0.11790  0.03384  1.0000
  H   H1        1.0  0.99932  0.23477  0.94716  1.0000
  H   H2        1.0  0.96143  0.19333  0.92930  1.0000
  H   H3        1.0  0.02079  0.18588  0.92226  1.0000
  H   H4        1.0  0.98202  0.11705  0.92099  1.0000
  H   H5        1.0  0.97291  0.03777  0.93499  1.0000
  H   H6        1.0  0.95559  0.99084  0.04691  1.0000
  H   H7        1.0  0.03636  0.99116  0.04652  1.0000
  H   H8        1.0  0.02850  0.94288  0.96126  1.0000
  H   H9        1.0  0.05171  0.99676  0.96738  1.0000
  H   H10       1.0  0.13722  0.99831  0.01288  1.0000
  H   H11       1.0  0.19361  0.92790  0.02621  1.0000
  H   H12       1.0  0.14210  0.85378  0.00785  1.0000
  H   H13       1.0  0.88818  0.94342  0.93093  1.0000
  H   H14       1.0  0.85351  0.83072  0.00109  1.0000
  H   H15       1.0  0.96034  0.91185  0.05083  1.0000
  H   H16       1.0  0.99003  0.06033  0.07613  1.0000
  H   H17       1.0  0.99938  0.14053  0.06156  1.0000
