data_image0
_chemical_formula_structural       COC11NCONC2OCNC4OC3H25
_chemical_formula_sum              "C23 O4 N3 H25"
_cell_length_a       30
_cell_length_b       30
_cell_length_c       30
_cell_angle_alpha    90
_cell_angle_beta     90
_cell_angle_gamma    90

_space_group_name_H-M_alt    "P 1"
_space_group_IT_number       1

loop_
  _space_group_symop_operation_xyz
  'x, y, z'

loop_
  _atom_site_type_symbol
  _atom_site_label
  _atom_site_symmetry_multiplicity
  _atom_site_fract_x
  _atom_site_fract_y
  _atom_site_fract_z
  _atom_site_occupancy
  C   C1        1.0  0.22999  0.98613  0.02723  1.0000
  O   O1        1.0  0.21602  0.99186  0.98221  1.0000
  C   C2        1.0  0.17186  0.00474  0.97823  1.0000
  C   C3        1.0  0.16169  0.03995  0.95290  1.0000
  C   C4        1.0  0.11611  0.05271  0.94544  1.0000
  C   C5        1.0  0.08090  0.03098  0.96316  1.0000
  C   C6        1.0  0.08799  0.99142  0.99177  1.0000
  C   C7        1.0  0.05635  0.96736  0.01309  1.0000
  C   C8        1.0  0.00825  0.97397  0.01578  1.0000
  C   C9        1.0  0.99047  0.97672  0.05712  1.0000
  C   C10       1.0  0.94464  0.98653  0.06787  1.0000
  C   C11       1.0  0.92117  0.02191  0.05286  1.0000
  C   C12       1.0  0.93900  0.06375  0.03123  1.0000
  N   N1        1.0  0.98334  0.07291  0.04735  1.0000
  C   C13       1.0  0.02066  0.08175  0.02407  1.0000
  O   O2        1.0  0.05496  0.09305  0.04320  1.0000
  N   N2        1.0  0.01755  0.08244  0.97906  1.0000
  C   C14       1.0  0.03422  0.04622  0.95037  1.0000
  C   C15       1.0  0.00711  0.00534  0.93746  1.0000
  O   O3        1.0  0.01025  0.98758  0.90054  1.0000
  C   C16       1.0  0.98149  0.98072  0.97342  1.0000
  N   N3        1.0  0.94231  0.96767  0.96023  1.0000
  C   C17       1.0  0.91722  0.93718  0.98310  1.0000
  C   C18       1.0  0.93317  0.88955  0.98204  1.0000
  C   C19       1.0  0.87765  0.94777  0.00159  1.0000
  C   C20       1.0  0.85808  0.99413  0.00465  1.0000
  O   O4        1.0  0.81038  0.99093  0.00336  1.0000
  C   C21       1.0  0.79371  0.98678  0.95912  1.0000
  C   C22       1.0  0.87091  0.01641  0.04963  1.0000
  C   C23       1.0  0.13628  0.97629  0.99947  1.0000
  H   H1        1.0  0.21680  0.95500  0.04094  1.0000
  H   H2        1.0  0.22012  0.01453  0.04796  1.0000
  H   H3        1.0  0.26639  0.98396  0.02750  1.0000
  H   H4        1.0  0.18775  0.05918  0.93677  1.0000
  H   H5        1.0  0.11144  0.08128  0.92361  1.0000
  H   H6        1.0  0.06768  0.93960  0.03379  1.0000
  H   H7        1.0  0.01150  0.97162  0.08628  1.0000
  H   H8        1.0  0.92743  0.95882  0.08390  1.0000
  H   H9        1.0  0.93777  0.06163  0.99489  1.0000
  H   H10       1.0  0.91881  0.09240  0.04148  1.0000
  H   H11       1.0  0.98745  0.07541  0.08070  1.0000
  H   H12       1.0  0.03619  0.10929  0.97066  1.0000
  H   H13       1.0  0.03664  0.06361  0.91808  1.0000
  H   H14       1.0  0.90835  0.86644  0.99555  1.0000
  H   H15       1.0  0.96368  0.88569  0.00164  1.0000
  H   H16       1.0  0.94018  0.87933  0.94769  1.0000
  H   H17       1.0  0.85826  0.92185  0.01788  1.0000
  H   H18       1.0  0.86941  0.01540  0.97712  1.0000
  H   H19       1.0  0.75738  0.98440  0.96086  1.0000
  H   H20       1.0  0.80240  0.01621  0.93941  1.0000
  H   H21       1.0  0.80647  0.95663  0.94305  1.0000
  H   H22       1.0  0.85416  0.04877  0.05274  1.0000
  H   H23       1.0  0.85803  0.99653  0.07757  1.0000
  H   H24       1.0  0.14002  0.94216  0.98680  1.0000
  H   H25       1.0  0.14196  0.97551  0.03560  1.0000
