data_image0
_chemical_formula_structural       COC7ONC3NC5SC11H36
_chemical_formula_sum              "C27 O2 N2 S1 H36"
_cell_length_a       30
_cell_length_b       30
_cell_length_c       30
_cell_angle_alpha    90
_cell_angle_beta     90
_cell_angle_gamma    90

_space_group_name_H-M_alt    "P 1"
_space_group_IT_number       1

loop_
  _space_group_symop_operation_xyz
  'x, y, z'

loop_
  _atom_site_type_symbol
  _atom_site_label
  _atom_site_symmetry_multiplicity
  _atom_site_fract_x
  _atom_site_fract_y
  _atom_site_fract_z
  _atom_site_occupancy
  C   C1        1.0  0.25159  0.97377  0.90306  1.0000
  O   O1        1.0  0.23992  0.99959  0.94113  1.0000
  C   C2        1.0  0.19706  0.01507  0.94320  1.0000
  C   C3        1.0  0.18583  0.03576  0.98328  1.0000
  C   C4        1.0  0.14295  0.05256  0.99005  1.0000
  C   C5        1.0  0.11033  0.04941  0.95662  1.0000
  C   C6        1.0  0.06381  0.06715  0.96671  1.0000
  C   C7        1.0  0.03398  0.07609  0.92620  1.0000
  C   C8        1.0  0.03944  0.03685  0.99997  1.0000
  O   O2        1.0  0.02960  0.05004  0.03750  1.0000
  N   N1        1.0  0.02978  0.99485  0.98395  1.0000
  C   C9        1.0  0.01097  0.95895  0.01035  1.0000
  C   C10       1.0  0.96586  0.97223  0.02732  1.0000
  C   C11       1.0  0.92740  0.95450  0.01329  1.0000
  N   N2        1.0  0.88367  0.96375  0.02702  1.0000
  C   C12       1.0  0.87207  0.00955  0.04404  1.0000
  C   C13       1.0  0.82228  0.01552  0.04977  1.0000
  C   C14       1.0  0.79601  0.03465  0.01907  1.0000
  C   C15       1.0  0.81441  0.05140  0.97795  1.0000
  C   C16       1.0  0.85836  0.05911  0.97435  1.0000
  S   S1        1.0  0.88055  0.08229  0.92599  1.0000
  C   C17       1.0  0.86858  0.14049  0.93649  1.0000
  C   C18       1.0  0.88956  0.04743  0.01240  1.0000
  C   C19       1.0  0.86450  0.92220  0.04793  1.0000
  C   C20       1.0  0.81700  0.91276  0.06012  1.0000
  C   C21       1.0  0.85127  0.91936  0.09621  1.0000
  C   C22       1.0  0.04356  0.94465  0.04571  1.0000
  C   C23       1.0  0.04713  0.89622  0.05923  1.0000
  C   C24       1.0  0.08450  0.91778  0.03344  1.0000
  C   C25       1.0  0.12792  0.92793  0.05529  1.0000
  C   C26       1.0  0.12208  0.02905  0.91620  1.0000
  C   C27       1.0  0.16512  0.01201  0.90957  1.0000
  H   H1        1.0  0.22994  0.94459  0.89972  1.0000
  H   H2        1.0  0.28567  0.96173  0.90761  1.0000
  H   H3        1.0  0.25087  0.99406  0.87268  1.0000
  H   H4        1.0  0.21056  0.03868  0.00966  1.0000
  H   H5        1.0  0.13498  0.06801  0.02194  1.0000
  H   H6        1.0  0.06818  0.09954  0.98333  1.0000
  H   H7        1.0  0.02568  0.04556  0.90801  1.0000
  H   H8        1.0  0.05003  0.09918  0.90296  1.0000
  H   H9        1.0  0.00244  0.09119  0.93684  1.0000
  H   H10       1.0  0.04789  0.98497  0.95725  1.0000
  H   H11       1.0  0.00684  0.93138  0.98659  1.0000
  H   H12       1.0  0.96563  0.99710  0.05369  1.0000
  H   H13       1.0  0.92751  0.92826  0.98818  1.0000
  H   H14       1.0  0.88796  0.01401  0.07676  1.0000
  H   H15       1.0  0.80781  0.00477  0.08108  1.0000
  H   H16       1.0  0.76043  0.03818  0.02450  1.0000
  H   H17       1.0  0.79117  0.05916  0.95121  1.0000
  H   H18       1.0  0.83257  0.14610  0.93828  1.0000
  H   H19       1.0  0.88207  0.16052  0.90921  1.0000
  H   H20       1.0  0.88407  0.15137  0.96766  1.0000
  H   H21       1.0  0.92243  0.03957  0.99869  1.0000
  H   H22       1.0  0.89427  0.07787  0.03240  1.0000
  H   H23       1.0  0.88106  0.89249  0.03480  1.0000
  H   H24       1.0  0.79159  0.93741  0.05427  1.0000
  H   H25       1.0  0.80480  0.87911  0.05477  1.0000
  H   H26       1.0  0.85001  0.94936  0.11610  1.0000
  H   H27       1.0  0.86253  0.89040  0.11470  1.0000
  H   H28       1.0  0.04706  0.96952  0.07183  1.0000
  H   H29       1.0  0.02695  0.87163  0.04199  1.0000
  H   H30       1.0  0.05211  0.88906  0.09431  1.0000
  H   H31       1.0  0.08894  0.90814  0.99894  1.0000
  H   H32       1.0  0.15058  0.89954  0.05199  1.0000
  H   H33       1.0  0.12399  0.93531  0.09080  1.0000
  H   H34       1.0  0.14351  0.95677  0.03938  1.0000
  H   H35       1.0  0.09818  0.02579  0.88911  1.0000
  H   H36       1.0  0.17261  0.99670  0.87769  1.0000
