data_image0
_chemical_formula_structural       COC6ONC2OC10H25
_chemical_formula_sum              "C19 O3 N1 H25"
_cell_length_a       30
_cell_length_b       30
_cell_length_c       30
_cell_angle_alpha    90
_cell_angle_beta     90
_cell_angle_gamma    90

_space_group_name_H-M_alt    "P 1"
_space_group_IT_number       1

loop_
  _space_group_symop_operation_xyz
  'x, y, z'

loop_
  _atom_site_type_symbol
  _atom_site_label
  _atom_site_symmetry_multiplicity
  _atom_site_fract_x
  _atom_site_fract_y
  _atom_site_fract_z
  _atom_site_occupancy
  C   C1        1.0  0.22932  0.03250  0.04553  1.0000
  O   O1        1.0  0.19765  0.00092  0.06122  1.0000
  C   C2        1.0  0.16072  0.99429  0.03537  1.0000
  C   C3        1.0  0.15077  0.01619  0.99571  1.0000
  C   C4        1.0  0.11149  0.00601  0.97258  1.0000
  C   C5        1.0  0.08101  0.97400  0.98822  1.0000
  C   C6        1.0  0.03832  0.96393  0.96201  1.0000
  C   C7        1.0  0.00581  0.00231  0.95676  1.0000
  O   O2        1.0  0.00980  0.02718  0.92445  1.0000
  N   N1        1.0  0.97253  0.00758  0.98846  1.0000
  C   C8        1.0  0.96849  0.98150  0.02939  1.0000
  C   C9        1.0  0.93948  0.00539  0.06383  1.0000
  O   O3        1.0  0.89558  0.01447  0.04757  1.0000
  C   C10       1.0  0.89389  0.03026  0.00215  1.0000
  C   C11       1.0  0.86973  0.99512  0.97391  1.0000
  C   C12       1.0  0.82076  0.99961  0.98717  1.0000
  C   C13       1.0  0.81496  0.04747  0.00364  1.0000
  C   C14       1.0  0.86089  0.06919  0.00044  1.0000
  C   C15       1.0  0.93972  0.04319  0.98278  1.0000
  C   C16       1.0  0.04518  0.93505  0.92023  1.0000
  C   C17       1.0  0.02044  0.91635  0.95907  1.0000
  C   C18       1.0  0.09185  0.95238  0.02828  1.0000
  C   C19       1.0  0.13105  0.96236  0.05148  1.0000
  H   H1        1.0  0.25693  0.03341  0.06935  1.0000
  H   H2        1.0  0.24294  0.02256  0.01314  1.0000
  H   H3        1.0  0.21484  0.06598  0.04403  1.0000
  H   H4        1.0  0.17258  0.04140  0.98171  1.0000
  H   H5        1.0  0.10436  0.02363  0.94161  1.0000
  H   H6        1.0  0.00141  0.97496  0.04333  1.0000
  H   H7        1.0  0.95313  0.94970  0.02023  1.0000
  H   H8        1.0  0.95469  0.03704  0.07399  1.0000
  H   H9        1.0  0.93610  0.98482  0.09379  1.0000
  H   H10       1.0  0.88157  0.96118  0.98005  1.0000
  H   H11       1.0  0.87331  0.00234  0.93827  1.0000
  H   H12       1.0  0.79867  0.99205  0.95910  1.0000
  H   H13       1.0  0.81266  0.97616  0.01404  1.0000
  H   H14       1.0  0.80326  0.04735  0.03825  1.0000
  H   H15       1.0  0.79040  0.06577  0.98378  1.0000
  H   H16       1.0  0.86358  0.08724  0.96874  1.0000
  H   H17       1.0  0.86586  0.09300  0.02767  1.0000
  H   H18       1.0  0.93688  0.05244  0.94755  1.0000
  H   H19       1.0  0.95309  0.07226  0.00053  1.0000
  H   H20       1.0  0.07823  0.92221  0.91333  1.0000
  H   H21       1.0  0.02650  0.94361  0.89049  1.0000
  H   H22       1.0  0.98486  0.91142  0.95502  1.0000
  H   H23       1.0  0.03655  0.89006  0.97786  1.0000
  H   H24       1.0  0.06964  0.92720  0.04192  1.0000
  H   H25       1.0  0.13852  0.94498  0.08239  1.0000
