data_image0
_chemical_formula_structural       COC5NCOC2NC11NC6ClCH36
_chemical_formula_sum              "C27 O2 N3 Cl1 H36"
_cell_length_a       30
_cell_length_b       30
_cell_length_c       30
_cell_angle_alpha    90
_cell_angle_beta     90
_cell_angle_gamma    90

_space_group_name_H-M_alt    "P 1"
_space_group_IT_number       1

loop_
  _space_group_symop_operation_xyz
  'x, y, z'

loop_
  _atom_site_type_symbol
  _atom_site_label
  _atom_site_symmetry_multiplicity
  _atom_site_fract_x
  _atom_site_fract_y
  _atom_site_fract_z
  _atom_site_occupancy
  C   C1        1.0  0.13600  0.85814  0.93623  1.0000
  O   O1        1.0  0.12270  0.90174  0.92322  1.0000
  C   C2        1.0  0.12527  0.93443  0.95485  1.0000
  C   C3        1.0  0.11154  0.97639  0.94065  1.0000
  C   C4        1.0  0.11256  0.01291  0.96958  1.0000
  C   C5        1.0  0.12664  0.00850  0.01407  1.0000
  C   C6        1.0  0.12638  0.04781  0.04641  1.0000
  N   N1        1.0  0.09957  0.04004  0.08595  1.0000
  C   C7        1.0  0.05473  0.03424  0.08851  1.0000
  O   O2        1.0  0.03825  0.01912  0.12287  1.0000
  C   C8        1.0  0.02661  0.04430  0.04917  1.0000
  C   C9        1.0  0.98570  0.01715  0.04186  1.0000
  N   N2        1.0  0.96491  0.01525  0.00426  1.0000
  C   C10       1.0  0.92702  0.98356  0.00282  1.0000
  C   C11       1.0  0.92903  0.96015  0.95674  1.0000
  C   C12       1.0  0.90783  0.91361  0.95586  1.0000
  C   C13       1.0  0.92700  0.89112  0.91441  1.0000
  C   C14       1.0  0.97044  0.91531  0.90400  1.0000
  C   C15       1.0  0.97669  0.94890  0.94148  1.0000
  C   C16       1.0  0.88323  0.01080  0.01201  1.0000
  C   C17       1.0  0.84000  0.98550  0.00132  1.0000
  C   C18       1.0  0.79853  0.01269  0.01309  1.0000
  C   C19       1.0  0.80074  0.02965  0.06087  1.0000
  C   C20       1.0  0.84460  0.05389  0.06929  1.0000
  N   N3        1.0  0.88281  0.02537  0.05933  1.0000
  C   C21       1.0  0.03487  0.07746  0.02019  1.0000
  C   C22       1.0  0.07284  0.10779  0.01928  1.0000
  C   C23       1.0  0.06014  0.15402  0.00405  1.0000
  C   C24       1.0  0.11491  0.09405  0.02850  1.0000
  C   C25       1.0  0.15547  0.12341  0.02302  1.0000
  C   C26       1.0  0.14114  0.96590  0.02756  1.0000
  Cl  Cl1       1.0  0.16201  0.95596  0.08056  1.0000
  C   C27       1.0  0.14025  0.92931  0.99842  1.0000
  H   H1        1.0  0.13175  0.83617  0.90743  1.0000
  H   H2        1.0  0.11484  0.84543  0.96311  1.0000
  H   H3        1.0  0.17124  0.85739  0.94570  1.0000
  H   H4        1.0  0.09981  0.98088  0.90662  1.0000
  H   H5        1.0  0.10137  0.04476  0.95640  1.0000
  H   H6        1.0  0.16059  0.05004  0.05934  1.0000
  H   H7        1.0  0.11566  0.02860  0.11326  1.0000
  H   H8        1.0  0.97526  0.99702  0.07088  1.0000
  H   H9        1.0  0.93067  0.95776  0.02862  1.0000
  H   H10       1.0  0.91354  0.98146  0.93131  1.0000
  H   H11       1.0  0.87149  0.91396  0.95456  1.0000
  H   H12       1.0  0.91754  0.89455  0.98551  1.0000
  H   H13       1.0  0.93248  0.85552  0.92017  1.0000
  H   H14       1.0  0.90395  0.89425  0.88625  1.0000
  H   H15       1.0  0.99877  0.89250  0.90163  1.0000
  H   H16       1.0  0.96765  0.93256  0.87188  1.0000
  H   H17       1.0  0.99569  0.93354  0.96874  1.0000
  H   H18       1.0  0.99510  0.97824  0.92997  1.0000
  H   H19       1.0  0.88445  0.04082  0.99102  1.0000
  H   H20       1.0  0.83923  0.95377  0.01950  1.0000
  H   H21       1.0  0.83829  0.97795  0.96568  1.0000
  H   H22       1.0  0.79589  0.04113  0.99023  1.0000
  H   H23       1.0  0.76857  0.99237  0.00836  1.0000
  H   H24       1.0  0.77264  0.05208  0.06737  1.0000
  H   H25       1.0  0.79754  0.00152  0.08401  1.0000
  H   H26       1.0  0.84632  0.06405  0.10432  1.0000
  H   H27       1.0  0.84634  0.08452  0.04942  1.0000
  H   H28       1.0  0.88177  0.99791  0.07933  1.0000
  H   H29       1.0  0.01110  0.08286  0.99317  1.0000
  H   H30       1.0  0.08587  0.17898  0.01059  1.0000
  H   H31       1.0  0.03029  0.16558  0.02169  1.0000
  H   H32       1.0  0.05308  0.15411  0.96825  1.0000
  H   H33       1.0  0.16776  0.13401  0.05570  1.0000
  H   H34       1.0  0.14948  0.15307  0.00281  1.0000
  H   H35       1.0  0.18209  0.10499  0.00611  1.0000
  H   H36       1.0  0.15153  0.89720  0.01065  1.0000
