data_image0
_chemical_formula_structural       COC3ClC5ONCONC5OCH19
_chemical_formula_sum              "C16 O4 Cl1 N2 H19"
_cell_length_a       30
_cell_length_b       30
_cell_length_c       30
_cell_angle_alpha    90
_cell_angle_beta     90
_cell_angle_gamma    90

_space_group_name_H-M_alt    "P 1"
_space_group_IT_number       1

loop_
  _space_group_symop_operation_xyz
  'x, y, z'

loop_
  _atom_site_type_symbol
  _atom_site_label
  _atom_site_symmetry_multiplicity
  _atom_site_fract_x
  _atom_site_fract_y
  _atom_site_fract_z
  _atom_site_occupancy
  C   C1        1.0  0.16767  0.90501  0.95631  1.0000
  O   O1        1.0  0.15542  0.93836  0.98763  1.0000
  C   C2        1.0  0.11908  0.96446  0.97795  1.0000
  C   C3        1.0  0.09425  0.96149  0.93866  1.0000
  C   C4        1.0  0.05765  0.98952  0.93162  1.0000
  Cl  Cl1       1.0  0.02855  0.98318  0.88226  1.0000
  C   C5        1.0  0.04532  0.02128  0.96360  1.0000
  C   C6        1.0  0.00572  0.05201  0.95806  1.0000
  C   C7        1.0  0.96286  0.03047  0.97266  1.0000
  C   C8        1.0  0.93959  0.03853  0.00986  1.0000
  C   C9        1.0  0.94882  0.06879  0.04682  1.0000
  O   O2        1.0  0.98464  0.09454  0.04878  1.0000
  N   N1        1.0  0.91939  0.06862  0.07818  1.0000
  C   C10       1.0  0.88782  0.03766  0.06455  1.0000
  O   O3        1.0  0.85454  0.02806  0.08592  1.0000
  N   N2        1.0  0.89997  0.01951  0.02333  1.0000
  C   C11       1.0  0.87404  0.98562  0.99997  1.0000
  C   C12       1.0  0.82759  0.00254  0.98746  1.0000
  C   C13       1.0  0.87117  0.94227  0.02666  1.0000
  C   C14       1.0  0.07039  0.02391  0.00319  1.0000
  C   C15       1.0  0.10699  0.99591  0.01060  1.0000
  O   O4        1.0  0.13298  0.99683  0.04825  1.0000
  C   C16       1.0  0.11960  0.02533  0.08360  1.0000
  H   H1        1.0  0.17783  0.91992  0.92460  1.0000
  H   H2        1.0  0.14072  0.88084  0.95156  1.0000
  H   H3        1.0  0.19638  0.88704  0.96982  1.0000
  H   H4        1.0  0.10272  0.93753  0.91294  1.0000
  H   H5        1.0  0.01208  0.08340  0.97550  1.0000
  H   H6        1.0  0.00249  0.06228  0.92312  1.0000
  H   H7        1.0  0.95044  0.00618  0.94888  1.0000
  H   H8        1.0  0.98277  0.11174  0.07623  1.0000
  H   H9        1.0  0.89086  0.97746  0.96866  1.0000
  H   H10       1.0  0.80707  0.00936  0.01683  1.0000
  H   H11       1.0  0.80996  0.97784  0.96716  1.0000
  H   H12       1.0  0.82989  0.03341  0.96809  1.0000
  H   H13       1.0  0.85235  0.94643  0.05764  1.0000
  H   H14       1.0  0.90452  0.93031  0.03547  1.0000
  H   H15       1.0  0.85466  0.91623  0.00710  1.0000
  H   H16       1.0  0.06064  0.04849  0.02793  1.0000
  H   H17       1.0  0.12156  0.06040  0.07365  1.0000
  H   H18       1.0  0.14284  0.02039  0.11129  1.0000
  H   H19       1.0  0.08618  0.01683  0.09554  1.0000
