data_image0
_chemical_formula_structural       COC4ONC7N2C2OC6H17
_chemical_formula_sum              "C20 O3 N3 H17"
_cell_length_a       30
_cell_length_b       30
_cell_length_c       30
_cell_angle_alpha    90
_cell_angle_beta     90
_cell_angle_gamma    90

_space_group_name_H-M_alt    "P 1"
_space_group_IT_number       1

loop_
  _space_group_symop_operation_xyz
  'x, y, z'

loop_
  _atom_site_type_symbol
  _atom_site_label
  _atom_site_symmetry_multiplicity
  _atom_site_fract_x
  _atom_site_fract_y
  _atom_site_fract_z
  _atom_site_occupancy
  C   C1        1.0  0.86418  0.00970  0.12749  1.0000
  O   O1        1.0  0.85626  0.00284  0.08125  1.0000
  C   C2        1.0  0.88333  0.02473  0.05149  1.0000
  C   C3        1.0  0.91662  0.05293  0.06101  1.0000
  C   C4        1.0  0.94506  0.07486  0.02609  1.0000
  C   C5        1.0  0.99416  0.06033  0.03375  1.0000
  O   O2        1.0  0.01356  0.06922  0.06878  1.0000
  N   N1        1.0  0.01181  0.03680  0.99815  1.0000
  C   C6        1.0  0.05469  0.01838  0.99380  1.0000
  C   C7        1.0  0.08776  0.02141  0.02629  1.0000
  C   C8        1.0  0.12969  0.00213  0.01928  1.0000
  C   C9        1.0  0.13949  0.97957  0.97952  1.0000
  C   C10       1.0  0.18483  0.95829  0.97325  1.0000
  C   C11       1.0  0.18571  0.91035  0.98592  1.0000
  C   C12       1.0  0.19968  0.88889  0.94971  1.0000
  N   N2        1.0  0.20806  0.91675  0.91463  1.0000
  N   N3        1.0  0.20005  0.95662  0.92577  1.0000
  C   C13       1.0  0.10598  0.97634  0.94714  1.0000
  C   C14       1.0  0.06413  0.99565  0.95419  1.0000
  O   O3        1.0  0.93221  0.06817  0.98057  1.0000
  C   C15       1.0  0.89903  0.03831  0.97155  1.0000
  C   C16       1.0  0.89064  0.03100  0.92629  1.0000
  C   C17       1.0  0.85775  0.00096  0.91313  1.0000
  C   C18       1.0  0.83315  0.97828  0.94525  1.0000
  C   C19       1.0  0.84139  0.98578  0.99047  1.0000
  C   C20       1.0  0.87441  0.01595  0.00420  1.0000
  H   H1        1.0  0.84000  0.98972  0.14609  1.0000
  H   H2        1.0  0.85916  0.04469  0.13656  1.0000
  H   H3        1.0  0.89762  0.99844  0.13683  1.0000
  H   H4        1.0  0.92528  0.06112  0.09516  1.0000
  H   H5        1.0  0.94416  0.11101  0.03145  1.0000
  H   H6        1.0  0.99068  0.03260  0.97203  1.0000
  H   H7        1.0  0.08210  0.03859  0.05762  1.0000
  H   H8        1.0  0.15471  0.00504  0.04539  1.0000
  H   H9        1.0  0.20996  0.97687  0.99224  1.0000
  H   H10       1.0  0.17696  0.89622  0.01771  1.0000
  H   H11       1.0  0.20447  0.85334  0.94636  1.0000
  H   H12       1.0  0.11219  0.95870  0.91604  1.0000
  H   H13       1.0  0.03909  0.99248  0.92818  1.0000
  H   H14       1.0  0.90970  0.04887  0.90119  1.0000
  H   H15       1.0  0.85127  0.99536  0.87793  1.0000
  H   H16       1.0  0.80739  0.95483  0.93525  1.0000
  H   H17       1.0  0.82162  0.96784  0.01502  1.0000
