data_image0
_chemical_formula_structural       COC6NCSNC2NCOC5BrCH18
_chemical_formula_sum              "C17 O2 N3 S1 Br1 H18"
_cell_length_a       30
_cell_length_b       30
_cell_length_c       30
_cell_angle_alpha    90
_cell_angle_beta     90
_cell_angle_gamma    90

_space_group_name_H-M_alt    "P 1"
_space_group_IT_number       1

loop_
  _space_group_symop_operation_xyz
  'x, y, z'

loop_
  _atom_site_type_symbol
  _atom_site_label
  _atom_site_symmetry_multiplicity
  _atom_site_fract_x
  _atom_site_fract_y
  _atom_site_fract_z
  _atom_site_occupancy
  C   C1        1.0  0.18891  0.05153  0.04396  1.0000
  O   O1        1.0  0.14700  0.03479  0.02937  1.0000
  C   C2        1.0  0.14375  0.98941  0.02309  1.0000
  C   C3        1.0  0.17754  0.95878  0.03275  1.0000
  C   C4        1.0  0.17055  0.91336  0.02559  1.0000
  C   C5        1.0  0.12979  0.89842  0.00922  1.0000
  C   C6        1.0  0.09584  0.92879  0.99954  1.0000
  C   C7        1.0  0.10261  0.97440  0.00563  1.0000
  N   N1        1.0  0.06999  0.00754  0.99743  1.0000
  C   C8        1.0  0.03156  0.00812  0.97180  1.0000
  S   S1        1.0  0.01609  0.97133  0.93299  1.0000
  N   N2        1.0  0.00700  0.04588  0.98254  1.0000
  C   C9        1.0  0.96447  0.05979  0.96379  1.0000
  C   C10       1.0  0.95869  0.10988  0.97115  1.0000
  N   N3        1.0  0.93010  0.03414  0.98528  1.0000
  C   C11       1.0  0.88703  0.03452  0.96921  1.0000
  O   O2        1.0  0.87375  0.06017  0.94034  1.0000
  C   C12       1.0  0.85635  0.00033  0.98807  1.0000
  C   C13       1.0  0.81973  0.98676  0.96242  1.0000
  C   C14       1.0  0.79011  0.95483  0.97880  1.0000
  C   C15       1.0  0.79679  0.93651  0.02099  1.0000
  C   C16       1.0  0.83294  0.95040  0.04671  1.0000
  Br  Br1       1.0  0.84153  0.92592  0.10416  1.0000
  C   C17       1.0  0.86275  0.98228  0.03064  1.0000
  H   H1        1.0  0.21534  0.04361  0.02007  1.0000
  H   H2        1.0  0.19705  0.03921  0.07734  1.0000
  H   H3        1.0  0.18628  0.08786  0.04592  1.0000
  H   H4        1.0  0.20958  0.96905  0.04597  1.0000
  H   H5        1.0  0.19682  0.88955  0.03310  1.0000
  H   H6        1.0  0.12415  0.86297  0.00417  1.0000
  H   H7        1.0  0.06422  0.91548  0.98826  1.0000
  H   H8        1.0  0.08080  0.03815  0.00707  1.0000
  H   H9        1.0  0.01408  0.05944  0.01252  1.0000
  H   H10       1.0  0.96385  0.05275  0.92798  1.0000
  H   H11       1.0  0.95764  0.11795  0.00678  1.0000
  H   H12       1.0  0.92792  0.12242  0.95614  1.0000
  H   H13       1.0  0.98656  0.12834  0.95645  1.0000
  H   H14       1.0  0.94097  0.00499  0.99809  1.0000
  H   H15       1.0  0.81431  0.00102  0.92948  1.0000
  H   H16       1.0  0.76187  0.94434  0.95865  1.0000
  H   H17       1.0  0.77357  0.91168  0.03356  1.0000
  H   H18       1.0  0.89012  0.99335  0.05157  1.0000
