data_image0
_chemical_formula_structural       COC6OC2ONC2NC10H24
_chemical_formula_sum              "C21 O3 N2 H24"
_cell_length_a       30
_cell_length_b       30
_cell_length_c       30
_cell_angle_alpha    90
_cell_angle_beta     90
_cell_angle_gamma    90

_space_group_name_H-M_alt    "P 1"
_space_group_IT_number       1

loop_
  _space_group_symop_operation_xyz
  'x, y, z'

loop_
  _atom_site_type_symbol
  _atom_site_label
  _atom_site_symmetry_multiplicity
  _atom_site_fract_x
  _atom_site_fract_y
  _atom_site_fract_z
  _atom_site_occupancy
  C   C1        1.0  0.24846  0.05462  0.04812  1.0000
  O   O1        1.0  0.20232  0.04549  0.04277  1.0000
  C   C2        1.0  0.19055  0.01771  0.00873  1.0000
  C   C3        1.0  0.21921  0.00040  0.97628  1.0000
  C   C4        1.0  0.20299  0.97204  0.94256  1.0000
  C   C5        1.0  0.15795  0.96052  0.94070  1.0000
  C   C6        1.0  0.12981  0.97808  0.97267  1.0000
  C   C7        1.0  0.14588  0.00600  0.00586  1.0000
  O   O2        1.0  0.11335  0.01961  0.03510  1.0000
  C   C8        1.0  0.07190  0.00689  0.01404  1.0000
  C   C9        1.0  0.03784  0.98997  0.04843  1.0000
  O   O3        1.0  0.04993  0.97293  0.08385  1.0000
  N   N1        1.0  0.99281  0.99349  0.03778  1.0000
  C   C10       1.0  0.95968  0.97964  0.07093  1.0000
  C   C11       1.0  0.91768  0.00914  0.06972  1.0000
  N   N2        1.0  0.89567  0.01269  0.02575  1.0000
  C   C12       1.0  0.85434  0.98628  0.02419  1.0000
  C   C13       1.0  0.82697  0.99415  0.98251  1.0000
  C   C14       1.0  0.81722  0.95893  0.95336  1.0000
  C   C15       1.0  0.79176  0.96632  0.91511  1.0000
  C   C16       1.0  0.77575  0.00889  0.90564  1.0000
  C   C17       1.0  0.78514  0.04415  0.93439  1.0000
  C   C18       1.0  0.81057  0.03682  0.97264  1.0000
  C   C19       1.0  0.92610  0.00111  0.98878  1.0000
  C   C20       1.0  0.97485  0.01458  0.99751  1.0000
  C   C21       1.0  0.08159  0.97035  0.97958  1.0000
  H   H1        1.0  0.26747  0.02397  0.05377  1.0000
  H   H2        1.0  0.26156  0.07315  0.01953  1.0000
  H   H3        1.0  0.25233  0.07567  0.07766  1.0000
  H   H4        1.0  0.25452  0.00824  0.97613  1.0000
  H   H5        1.0  0.22597  0.95880  0.91783  1.0000
  H   H6        1.0  0.14566  0.93824  0.91499  1.0000
  H   H7        1.0  0.05918  0.03720  0.99803  1.0000
  H   H8        1.0  0.97404  0.98042  0.10448  1.0000
  H   H9        1.0  0.95094  0.94493  0.06351  1.0000
  H   H10       1.0  0.89439  0.99814  0.09567  1.0000
  H   H11       1.0  0.92758  0.04308  0.07916  1.0000
  H   H12       1.0  0.86182  0.95065  0.02799  1.0000
  H   H13       1.0  0.83283  0.99529  0.05242  1.0000
  H   H14       1.0  0.82940  0.92549  0.96025  1.0000
  H   H15       1.0  0.78435  0.93883  0.89270  1.0000
  H   H16       1.0  0.75591  0.01460  0.87587  1.0000
  H   H17       1.0  0.77271  0.07737  0.92705  1.0000
  H   H18       1.0  0.81792  0.06456  0.99484  1.0000
  H   H19       1.0  0.92550  0.96501  0.98264  1.0000
  H   H20       1.0  0.91486  0.01761  0.95819  1.0000
  H   H21       1.0  0.99520  0.00541  0.96874  1.0000
  H   H22       1.0  0.97752  0.05076  0.00199  1.0000
  H   H23       1.0  0.06232  0.97503  0.94901  1.0000
  H   H24       1.0  0.07571  0.93677  0.99266  1.0000
