data_image0
_chemical_formula_structural       COC6NCOC6NC2OSO2C4NC3H31
_chemical_formula_sum              "C23 O5 N3 S1 H31"
_cell_length_a       30
_cell_length_b       30
_cell_length_c       30
_cell_angle_alpha    90
_cell_angle_beta     90
_cell_angle_gamma    90

_space_group_name_H-M_alt    "P 1"
_space_group_IT_number       1

loop_
  _space_group_symop_operation_xyz
  'x, y, z'

loop_
  _atom_site_type_symbol
  _atom_site_label
  _atom_site_symmetry_multiplicity
  _atom_site_fract_x
  _atom_site_fract_y
  _atom_site_fract_z
  _atom_site_occupancy
  C   C1        1.0  0.68847  0.00171  0.02637  1.0000
  O   O1        1.0  0.71615  0.03998  0.02970  1.0000
  C   C2        1.0  0.75979  0.03484  0.01790  1.0000
  C   C3        1.0  0.78661  0.07195  0.02522  1.0000
  C   C4        1.0  0.83210  0.07105  0.01468  1.0000
  C   C5        1.0  0.85258  0.03312  0.99627  1.0000
  C   C6        1.0  0.90419  0.03282  0.98413  1.0000
  C   C7        1.0  0.93390  0.99501  0.00249  1.0000
  N   N1        1.0  0.95338  0.99203  0.95817  1.0000
  C   C8        1.0  0.99630  0.98612  0.94393  1.0000
  O   O2        1.0  0.00922  0.99912  0.90726  1.0000
  C   C9        1.0  0.02761  0.96227  0.97538  1.0000
  C   C10       1.0  0.06995  0.97761  0.97472  1.0000
  C   C11       1.0  0.10776  0.95899  0.99846  1.0000
  C   C12       1.0  0.15020  0.97305  0.99624  1.0000
  C   C13       1.0  0.16504  0.01075  0.96736  1.0000
  C   C14       1.0  0.16232  0.05804  0.98837  1.0000
  N   N2        1.0  0.20503  0.07223  0.96685  1.0000
  C   C15       1.0  0.23371  0.10653  0.98753  1.0000
  C   C16       1.0  0.22668  0.11482  0.03736  1.0000
  O   O3        1.0  0.23446  0.07695  0.06485  1.0000
  S   S1        1.0  0.22413  0.01932  0.96464  1.0000
  O   O4        1.0  0.24722  0.00984  0.00596  1.0000
  O   O5        1.0  0.24265  0.01139  0.92101  1.0000
  C   C17       1.0  0.01232  0.92294  0.99994  1.0000
  C   C18       1.0  0.99786  0.88475  0.97079  1.0000
  C   C19       1.0  0.01119  0.92299  0.04494  1.0000
  C   C20       1.0  0.99787  0.88599  0.07539  1.0000
  N   N3        1.0  0.95560  0.89693  0.09631  1.0000
  C   C21       1.0  0.91858  0.01831  0.93696  1.0000
  C   C22       1.0  0.82451  0.99612  0.98910  1.0000
  C   C23       1.0  0.77892  0.99678  0.99961  1.0000
  H   H1        1.0  0.65513  0.01105  0.03793  1.0000
  H   H2        1.0  0.68550  0.99058  0.99173  1.0000
  H   H3        1.0  0.70065  0.97485  0.04788  1.0000
  H   H4        1.0  0.77222  0.10193  0.03948  1.0000
  H   H5        1.0  0.85187  0.10083  0.02096  1.0000
  H   H6        1.0  0.91910  0.06541  0.99216  1.0000
  H   H7        1.0  0.95691  0.00578  0.02852  1.0000
  H   H8        1.0  0.91696  0.96421  0.01219  1.0000
  H   H9        1.0  0.07692  0.00628  0.95356  1.0000
  H   H10       1.0  0.10113  0.93051  0.02012  1.0000
  H   H11       1.0  0.17544  0.95587  0.01588  1.0000
  H   H12       1.0  0.15168  0.00875  0.93333  1.0000
  H   H13       1.0  0.16249  0.05798  0.02480  1.0000
  H   H14       1.0  0.13402  0.07804  0.97698  1.0000
  H   H15       1.0  0.22779  0.13771  0.96948  1.0000
  H   H16       1.0  0.26864  0.09780  0.98147  1.0000
  H   H17       1.0  0.24952  0.14101  0.04842  1.0000
  H   H18       1.0  0.19286  0.12667  0.04390  1.0000
  H   H19       1.0  0.24870  0.05339  0.04715  1.0000
  H   H20       1.0  0.98113  0.85824  0.98937  1.0000
  H   H21       1.0  0.97432  0.89566  0.94511  1.0000
  H   H22       1.0  0.02687  0.87004  0.95417  1.0000
  H   H23       1.0  0.02175  0.95304  0.06248  1.0000
  H   H24       1.0  0.99587  0.85364  0.05870  1.0000
  H   H25       1.0  0.02343  0.88265  0.10127  1.0000
  H   H26       1.0  0.93108  0.89547  0.07288  1.0000
  H   H27       1.0  0.94804  0.87289  0.11906  1.0000
  H   H28       1.0  0.93069  0.04522  0.91561  1.0000
  H   H29       1.0  0.89514  0.99739  0.91850  1.0000
  H   H30       1.0  0.83837  0.96579  0.97478  1.0000
  H   H31       1.0  0.75950  0.96701  0.99289  1.0000
