data_image0
_chemical_formula_structural       COC5OC2ONC6H19
_chemical_formula_sum              "C14 O3 N1 H19"
_cell_length_a       30
_cell_length_b       30
_cell_length_c       30
_cell_angle_alpha    90
_cell_angle_beta     90
_cell_angle_gamma    90

_space_group_name_H-M_alt    "P 1"
_space_group_IT_number       1

loop_
  _space_group_symop_operation_xyz
  'x, y, z'

loop_
  _atom_site_type_symbol
  _atom_site_label
  _atom_site_symmetry_multiplicity
  _atom_site_fract_x
  _atom_site_fract_y
  _atom_site_fract_z
  _atom_site_occupancy
  C   C1        1.0  0.10016  0.08752  0.98458  1.0000
  O   O1        1.0  0.06583  0.05495  0.98723  1.0000
  C   C2        1.0  0.07892  0.01164  0.99352  1.0000
  C   C3        1.0  0.12000  0.99924  0.01183  1.0000
  C   C4        1.0  0.13053  0.95422  0.01793  1.0000
  C   C5        1.0  0.10013  0.92109  0.00611  1.0000
  C   C6        1.0  0.05900  0.93306  0.98818  1.0000
  O   O2        1.0  0.02889  0.90062  0.97737  1.0000
  C   C7        1.0  0.04831  0.97810  0.98209  1.0000
  C   C8        1.0  0.00537  0.99023  0.96135  1.0000
  O   O3        1.0  0.00360  0.99090  0.92038  1.0000
  N   N1        1.0  0.96941  0.00080  0.98910  1.0000
  C   C9        1.0  0.97248  0.00237  0.03779  1.0000
  C   C10       1.0  0.92779  0.99323  0.06012  1.0000
  C   C11       1.0  0.89111  0.02487  0.04435  1.0000
  C   C12       1.0  0.90154  0.04681  0.99959  1.0000
  C   C13       1.0  0.92808  0.01654  0.96806  1.0000
  C   C14       1.0  0.90001  0.97739  0.95114  1.0000
  H   H1        1.0  0.11437  0.09403  0.01755  1.0000
  H   H2        1.0  0.12607  0.07782  0.96076  1.0000
  H   H3        1.0  0.08516  0.11856  0.97267  1.0000
  H   H4        1.0  0.14443  0.02391  0.02200  1.0000
  H   H5        1.0  0.16260  0.94503  0.03215  1.0000
  H   H6        1.0  0.10889  0.88636  0.01137  1.0000
  H   H7        1.0  0.04370  0.87185  0.97712  1.0000
  H   H8        1.0  0.99693  0.97814  0.04979  1.0000
  H   H9        1.0  0.98469  0.03561  0.04685  1.0000
  H   H10       1.0  0.91773  0.95883  0.05280  1.0000
  H   H11       1.0  0.93116  0.99537  0.09643  1.0000
  H   H12       1.0  0.85962  0.00643  0.04221  1.0000
  H   H13       1.0  0.88579  0.05105  0.06930  1.0000
  H   H14       1.0  0.92127  0.07699  0.00594  1.0000
  H   H15       1.0  0.87056  0.05806  0.98379  1.0000
  H   H16       1.0  0.93735  0.03659  0.93889  1.0000
  H   H17       1.0  0.86944  0.98937  0.93520  1.0000
  H   H18       1.0  0.91846  0.95779  0.92647  1.0000
  H   H19       1.0  0.89060  0.95464  0.97804  1.0000
