data_image0
_chemical_formula_structural       COC5NC3OCSC2H19
_chemical_formula_sum              "C12 O2 N1 S1 H19"
_cell_length_a       30
_cell_length_b       30
_cell_length_c       30
_cell_angle_alpha    90
_cell_angle_beta     90
_cell_angle_gamma    90

_space_group_name_H-M_alt    "P 1"
_space_group_IT_number       1

loop_
  _space_group_symop_operation_xyz
  'x, y, z'

loop_
  _atom_site_type_symbol
  _atom_site_label
  _atom_site_symmetry_multiplicity
  _atom_site_fract_x
  _atom_site_fract_y
  _atom_site_fract_z
  _atom_site_occupancy
  C   C1        1.0  0.12295  0.08752  0.00007  1.0000
  O   O1        1.0  0.14018  0.04428  0.00906  1.0000
  C   C2        1.0  0.11104  0.00938  0.00549  1.0000
  C   C3        1.0  0.12898  0.96790  0.01652  1.0000
  C   C4        1.0  0.10292  0.92952  0.01413  1.0000
  C   C5        1.0  0.05849  0.93246  0.00072  1.0000
  C   C6        1.0  0.03964  0.97379  0.98981  1.0000
  N   N1        1.0  0.99495  0.97876  0.97515  1.0000
  C   C7        1.0  0.99341  0.97116  0.92667  1.0000
  C   C8        1.0  0.96173  0.95271  0.00121  1.0000
  C   C9        1.0  0.92208  0.98306  0.01437  1.0000
  O   O2        1.0  0.93975  0.02344  0.03316  1.0000
  C   C10       1.0  0.89189  0.99408  0.97463  1.0000
  S   S1        1.0  0.83493  0.00994  0.99023  1.0000
  C   C11       1.0  0.84645  0.05990  0.02211  1.0000
  C   C12       1.0  0.06656  0.01208  0.99199  1.0000
  H   H1        1.0  0.11212  0.09037  0.96533  1.0000
  H   H2        1.0  0.09592  0.09601  0.02308  1.0000
  H   H3        1.0  0.14990  0.11155  0.00527  1.0000
  H   H4        1.0  0.16360  0.96553  0.02699  1.0000
  H   H5        1.0  0.11728  0.89736  0.02258  1.0000
  H   H6        1.0  0.03896  0.90206  0.99847  1.0000
  H   H7        1.0  0.95988  0.97750  0.91383  1.0000
  H   H8        1.0  0.01592  0.99391  0.90903  1.0000
  H   H9        1.0  0.00230  0.93675  0.91812  1.0000
  H   H10       1.0  0.97649  0.94124  0.03268  1.0000
  H   H11       1.0  0.95043  0.92308  0.98303  1.0000
  H   H12       1.0  0.90295  0.96600  0.04041  1.0000
  H   H13       1.0  0.96814  0.02786  0.01749  1.0000
  H   H14       1.0  0.88818  0.96476  0.95323  1.0000
  H   H15       1.0  0.90575  0.02122  0.95454  1.0000
  H   H16       1.0  0.81512  0.07763  0.02785  1.0000
  H   H17       1.0  0.86891  0.08202  0.00386  1.0000
  H   H18       1.0  0.86063  0.05145  0.05456  1.0000
  H   H19       1.0  0.05159  0.04374  0.98299  1.0000
