data_image0
_chemical_formula_structural       COC7NC4NCOC2OC2ClC2ClNC2OH19
_chemical_formula_sum              "C21 O4 N3 Cl2 H19"
_cell_length_a       30
_cell_length_b       30
_cell_length_c       30
_cell_angle_alpha    90
_cell_angle_beta     90
_cell_angle_gamma    90

_space_group_name_H-M_alt    "P 1"
_space_group_IT_number       1

loop_
  _space_group_symop_operation_xyz
  'x, y, z'

loop_
  _atom_site_type_symbol
  _atom_site_label
  _atom_site_symmetry_multiplicity
  _atom_site_fract_x
  _atom_site_fract_y
  _atom_site_fract_z
  _atom_site_occupancy
  C   C1        1.0  0.92162  0.88996  0.97052  1.0000
  O   O1        1.0  0.91802  0.93117  0.94736  1.0000
  C   C2        1.0  0.89157  0.96345  0.96590  1.0000
  C   C3        1.0  0.86642  0.95817  0.00480  1.0000
  C   C4        1.0  0.84043  0.99331  0.02114  1.0000
  C   C5        1.0  0.83901  0.03394  0.99869  1.0000
  C   C6        1.0  0.86379  0.03969  0.95987  1.0000
  C   C7        1.0  0.89039  0.00477  0.94398  1.0000
  C   C8        1.0  0.91588  0.01078  0.90228  1.0000
  N   N1        1.0  0.94352  0.04244  0.89173  1.0000
  C   C9        1.0  0.95542  0.07489  0.92588  1.0000
  C   C10       1.0  0.97813  0.07642  0.96467  1.0000
  C   C11       1.0  0.00246  0.04146  0.99423  1.0000
  C   C12       1.0  0.04309  0.02239  0.97020  1.0000
  N   N2        1.0  0.06618  0.98863  0.99604  1.0000
  C   C13       1.0  0.09162  0.99989  0.03269  1.0000
  O   O2        1.0  0.09305  0.03765  0.04815  1.0000
  C   C14       1.0  0.11841  0.96319  0.05273  1.0000
  C   C15       1.0  0.14214  0.93317  0.02556  1.0000
  O   O3        1.0  0.13932  0.93604  0.98004  1.0000
  C   C16       1.0  0.16873  0.89982  0.04417  1.0000
  C   C17       1.0  0.17168  0.89614  0.09033  1.0000
  Cl  Cl1       1.0  0.20427  0.85501  0.11346  1.0000
  C   C18       1.0  0.14817  0.92512  0.11788  1.0000
  C   C19       1.0  0.12146  0.95857  0.09923  1.0000
  Cl  Cl2       1.0  0.09152  0.99094  0.13644  1.0000
  N   N3        1.0  0.97096  0.12450  0.96648  1.0000
  C   C20       1.0  0.99395  0.15820  0.99088  1.0000
  C   C21       1.0  0.95334  0.12420  0.92494  1.0000
  O   O4        1.0  0.94221  0.15297  0.89882  1.0000
  H   H1        1.0  0.94454  0.86864  0.95179  1.0000
  H   H2        1.0  0.93571  0.89477  0.00385  1.0000
  H   H3        1.0  0.88939  0.87291  0.97209  1.0000
  H   H4        1.0  0.86619  0.92712  0.02336  1.0000
  H   H5        1.0  0.82105  0.98882  0.05146  1.0000
  H   H6        1.0  0.81851  0.06104  0.01131  1.0000
  H   H7        1.0  0.86200  0.07116  0.94198  1.0000
  H   H8        1.0  0.91037  0.98464  0.87695  1.0000
  H   H9        1.0  0.97928  0.01457  0.00284  1.0000
  H   H10       1.0  0.01214  0.05735  0.02563  1.0000
  H   H11       1.0  0.03305  0.00658  0.93884  1.0000
  H   H12       1.0  0.06687  0.04895  0.96211  1.0000
  H   H13       1.0  0.07490  0.96013  0.98000  1.0000
  H   H14       1.0  0.16237  0.91766  0.96641  1.0000
  H   H15       1.0  0.18699  0.87660  0.02322  1.0000
  H   H16       1.0  0.15036  0.92158  0.15390  1.0000
  H   H17       1.0  0.02810  0.16075  0.97837  1.0000
  H   H18       1.0  0.99412  0.14964  0.02628  1.0000
  H   H19       1.0  0.97726  0.19019  0.98575  1.0000
