data_image0
_chemical_formula_structural       COC3OC9NOC4ClC2ClCH15
_chemical_formula_sum              "C20 O3 N1 Cl2 H15"
_cell_length_a       30
_cell_length_b       30
_cell_length_c       30
_cell_angle_alpha    90
_cell_angle_beta     90
_cell_angle_gamma    90

_space_group_name_H-M_alt    "P 1"
_space_group_IT_number       1

loop_
  _space_group_symop_operation_xyz
  'x, y, z'

loop_
  _atom_site_type_symbol
  _atom_site_label
  _atom_site_symmetry_multiplicity
  _atom_site_fract_x
  _atom_site_fract_y
  _atom_site_fract_z
  _atom_site_occupancy
  C   C1        1.0  0.93998  0.89240  0.96402  1.0000
  O   O1        1.0  0.95238  0.92549  0.99563  1.0000
  C   C2        1.0  0.99435  0.94235  0.99204  1.0000
  C   C3        1.0  0.00679  0.97297  0.02489  1.0000
  C   C4        1.0  0.05143  0.96766  0.03513  1.0000
  O   O2        1.0  0.06850  0.96878  0.07705  1.0000
  C   C5        1.0  0.03832  0.95374  0.11059  1.0000
  C   C6        1.0  0.07578  0.98150  0.99918  1.0000
  C   C7        1.0  0.05992  0.96484  0.95715  1.0000
  C   C8        1.0  0.02487  0.93466  0.95763  1.0000
  C   C9        1.0  0.05565  0.99466  0.92210  1.0000
  C   C10       1.0  0.04279  0.03729  0.93583  1.0000
  C   C11       1.0  0.04403  0.04596  0.98161  1.0000
  C   C12       1.0  0.08164  0.02683  0.00060  1.0000
  C   C13       1.0  0.10381  0.05104  0.03772  1.0000
  N   N1        1.0  0.14151  0.03186  0.05469  1.0000
  O   O3        1.0  0.08979  0.08668  0.05178  1.0000
  C   C14       1.0  0.00037  0.02736  0.01144  1.0000
  C   C15       1.0  0.95459  0.04148  0.99485  1.0000
  C   C16       1.0  0.93596  0.02596  0.95488  1.0000
  C   C17       1.0  0.89363  0.03980  0.94125  1.0000
  Cl  Cl1       1.0  0.87183  0.01964  0.89214  1.0000
  C   C18       1.0  0.86902  0.06954  0.96685  1.0000
  C   C19       1.0  0.88716  0.08543  0.00641  1.0000
  Cl  Cl2       1.0  0.85723  0.12233  0.03856  1.0000
  C   C20       1.0  0.92943  0.07172  0.02039  1.0000
  H   H1        1.0  0.93764  0.90667  0.93051  1.0000
  H   H2        1.0  0.96303  0.86409  0.96468  1.0000
  H   H3        1.0  0.90690  0.88006  0.97318  1.0000
  H   H4        1.0  0.01142  0.97788  0.11568  1.0000
  H   H5        1.0  0.05692  0.95100  0.14184  1.0000
  H   H6        1.0  0.02488  0.92073  0.10260  1.0000
  H   H7        1.0  0.01487  0.91687  0.92778  1.0000
  H   H8        1.0  0.04752  0.98430  0.88831  1.0000
  H   H9        1.0  0.02624  0.05997  0.91297  1.0000
  H   H10       1.0  0.15373  0.04579  0.08285  1.0000
  H   H11       1.0  0.14787  0.99915  0.04963  1.0000
  H   H12       1.0  0.00522  0.04380  0.04398  1.0000
  H   H13       1.0  0.95409  0.00267  0.93394  1.0000
  H   H14       1.0  0.83614  0.08022  0.95613  1.0000
  H   H15       1.0  0.94280  0.08483  0.05150  1.0000
