data_image0
_chemical_formula_structural       COC6SCNCOC4SO2CNC2OCH20
_chemical_formula_sum              "C17 O5 S2 N2 H20"
_cell_length_a       30
_cell_length_b       30
_cell_length_c       30
_cell_angle_alpha    90
_cell_angle_beta     90
_cell_angle_gamma    90

_space_group_name_H-M_alt    "P 1"
_space_group_IT_number       1

loop_
  _space_group_symop_operation_xyz
  'x, y, z'

loop_
  _atom_site_type_symbol
  _atom_site_label
  _atom_site_symmetry_multiplicity
  _atom_site_fract_x
  _atom_site_fract_y
  _atom_site_fract_z
  _atom_site_occupancy
  C   C1        1.0  0.18975  0.11338  0.07197  1.0000
  O   O1        1.0  0.19912  0.06973  0.05621  1.0000
  C   C2        1.0  0.16394  0.04472  0.04101  1.0000
  C   C3        1.0  0.11975  0.05925  0.04009  1.0000
  C   C4        1.0  0.08614  0.03130  0.02393  1.0000
  C   C5        1.0  0.09588  0.98840  0.00827  1.0000
  C   C6        1.0  0.05948  0.96049  0.99164  1.0000
  C   C7        1.0  0.06466  0.92130  0.96788  1.0000
  S   S1        1.0  0.01340  0.89929  0.95477  1.0000
  C   C8        1.0  0.98870  0.94334  0.98084  1.0000
  N   N1        1.0  0.94317  0.94236  0.97992  1.0000
  C   C9        1.0  0.91754  0.97588  0.99801  1.0000
  O   O2        1.0  0.93071  0.00981  0.01653  1.0000
  C   C10       1.0  0.86792  0.96609  0.99302  1.0000
  C   C11       1.0  0.83838  0.00576  0.00689  1.0000
  C   C12       1.0  0.78879  0.99300  0.00933  1.0000
  C   C13       1.0  0.77133  0.98957  0.96173  1.0000
  S   S2        1.0  0.80070  0.03117  0.93093  1.0000
  O   O3        1.0  0.77161  0.06904  0.92414  1.0000
  O   O4        1.0  0.82375  0.00933  0.89454  1.0000
  C   C14       1.0  0.84041  0.04442  0.97336  1.0000
  N   N2        1.0  0.01539  0.97270  0.99865  1.0000
  C   C15       1.0  0.14031  0.97381  0.00947  1.0000
  C   C16       1.0  0.17432  0.00157  0.02562  1.0000
  O   O5        1.0  0.21852  0.98972  0.02780  1.0000
  C   C17       1.0  0.23068  0.94648  0.01292  1.0000
  H   H1        1.0  0.17596  0.13430  0.04543  1.0000
  H   H2        1.0  0.16760  0.11246  0.10096  1.0000
  H   H3        1.0  0.22126  0.12838  0.08261  1.0000
  H   H4        1.0  0.11008  0.09210  0.05170  1.0000
  H   H5        1.0  0.05189  0.04345  0.02367  1.0000
  H   H6        1.0  0.09474  0.90457  0.95739  1.0000
  H   H7        1.0  0.92909  0.91628  0.96405  1.0000
  H   H8        1.0  0.86140  0.95609  0.95852  1.0000
  H   H9        1.0  0.86052  0.93743  0.01451  1.0000
  H   H10       1.0  0.84932  0.01760  0.03970  1.0000
  H   H11       1.0  0.78324  0.96201  0.02779  1.0000
  H   H12       1.0  0.77060  0.01946  0.02685  1.0000
  H   H13       1.0  0.77910  0.95710  0.94710  1.0000
  H   H14       1.0  0.73551  0.99575  0.95968  1.0000
  H   H15       1.0  0.87310  0.04936  0.95816  1.0000
  H   H16       1.0  0.82941  0.07547  0.98906  1.0000
  H   H17       1.0  0.14825  0.94051  0.99805  1.0000
  H   H18       1.0  0.26674  0.94298  0.01709  1.0000
  H   H19       1.0  0.21465  0.92062  0.03307  1.0000
  H   H20       1.0  0.22318  0.94216  0.97746  1.0000
