data_image0
_chemical_formula_structural       COC5NC2NCOCSC5NC9H31
_chemical_formula_sum              "C24 O2 N3 S1 H31"
_cell_length_a       30
_cell_length_b       30
_cell_length_c       30
_cell_angle_alpha    90
_cell_angle_beta     90
_cell_angle_gamma    90

_space_group_name_H-M_alt    "P 1"
_space_group_IT_number       1

loop_
  _space_group_symop_operation_xyz
  'x, y, z'

loop_
  _atom_site_type_symbol
  _atom_site_label
  _atom_site_symmetry_multiplicity
  _atom_site_fract_x
  _atom_site_fract_y
  _atom_site_fract_z
  _atom_site_occupancy
  C   C1        1.0  0.23808  0.86990  0.02712  1.0000
  O   O1        1.0  0.24795  0.91630  0.02792  1.0000
  C   C2        1.0  0.21456  0.94460  0.01532  1.0000
  C   C3        1.0  0.22512  0.98964  0.01704  1.0000
  C   C4        1.0  0.19357  0.02197  0.00492  1.0000
  C   C5        1.0  0.14976  0.01148  0.99081  1.0000
  C   C6        1.0  0.11536  0.05086  0.97656  1.0000
  N   N1        1.0  0.06667  0.04100  0.97755  1.0000
  C   C7        1.0  0.04868  0.01507  0.94009  1.0000
  C   C8        1.0  0.99737  0.01215  0.94164  1.0000
  N   N2        1.0  0.98028  0.99778  0.98507  1.0000
  C   C9        1.0  0.93872  0.97714  0.98574  1.0000
  O   O2        1.0  0.91960  0.96626  0.95092  1.0000
  C   C10       1.0  0.91734  0.96631  0.03046  1.0000
  S   S1        1.0  0.88738  0.01441  0.05263  1.0000
  C   C11       1.0  0.83181  0.00093  0.03633  1.0000
  C   C12       1.0  0.81963  0.99715  0.99157  1.0000
  C   C13       1.0  0.77581  0.98659  0.97987  1.0000
  C   C14       1.0  0.74334  0.97986  0.01276  1.0000
  C   C15       1.0  0.69624  0.96831  0.99988  1.0000
  N   N3        1.0  0.67352  0.00621  0.97971  1.0000
  C   C16       1.0  0.75547  0.98453  0.05759  1.0000
  C   C17       1.0  0.79935  0.99506  0.06925  1.0000
  C   C18       1.0  0.99974  0.02173  0.02302  1.0000
  C   C19       1.0  0.05102  0.02339  0.02063  1.0000
  C   C20       1.0  0.11967  0.09786  0.00090  1.0000
  C   C21       1.0  0.11172  0.12078  0.95568  1.0000
  C   C22       1.0  0.12794  0.07771  0.93317  1.0000
  C   C23       1.0  0.14096  0.96535  0.98898  1.0000
  C   C24       1.0  0.17224  0.93254  0.00105  1.0000
  H   H1        1.0  0.26785  0.85197  0.03821  1.0000
  H   H2        1.0  0.23033  0.85870  0.99322  1.0000
  H   H3        1.0  0.21099  0.86174  0.05022  1.0000
  H   H4        1.0  0.25821  0.00001  0.02764  1.0000
  H   H5        1.0  0.20425  0.05662  0.00614  1.0000
  H   H6        1.0  0.05715  0.03013  0.90803  1.0000
  H   H7        1.0  0.06181  0.98116  0.93949  1.0000
  H   H8        1.0  0.98274  0.04494  0.93469  1.0000
  H   H9        1.0  0.98601  0.98945  0.91540  1.0000
  H   H10       1.0  0.94267  0.95537  0.05430  1.0000
  H   H11       1.0  0.89490  0.93782  0.02614  1.0000
  H   H12       1.0  0.84384  0.00261  0.96517  1.0000
  H   H13       1.0  0.76697  0.98392  0.94479  1.0000
  H   H14       1.0  0.69669  0.94038  0.97627  1.0000
  H   H15       1.0  0.67752  0.95700  0.02916  1.0000
  H   H16       1.0  0.64092  0.99848  0.97471  1.0000
  H   H17       1.0  0.67395  0.03221  0.00149  1.0000
  H   H18       1.0  0.73088  0.98003  0.08384  1.0000
  H   H19       1.0  0.80790  0.99853  0.10432  1.0000
  H   H20       1.0  0.98603  0.05562  0.02264  1.0000
  H   H21       1.0  0.99005  0.00639  0.05453  1.0000
  H   H22       1.0  0.06349  0.98960  0.02641  1.0000
  H   H23       1.0  0.06285  0.04393  0.04842  1.0000
  H   H24       1.0  0.09528  0.10651  0.02665  1.0000
  H   H25       1.0  0.15259  0.10561  0.01467  1.0000
  H   H26       1.0  0.13183  0.15049  0.94928  1.0000
  H   H27       1.0  0.07668  0.12874  0.94899  1.0000
  H   H28       1.0  0.16398  0.07833  0.92654  1.0000
  H   H29       1.0  0.11193  0.06962  0.90152  1.0000
  H   H30       1.0  0.10870  0.95332  0.97806  1.0000
  H   H31       1.0  0.16210  0.89790  0.99863  1.0000
