data_image0
_chemical_formula_structural       COC5ONC5NC5NC4NC3H32
_chemical_formula_sum              "C23 O2 N4 H32"
_cell_length_a       30
_cell_length_b       30
_cell_length_c       30
_cell_angle_alpha    90
_cell_angle_beta     90
_cell_angle_gamma    90

_space_group_name_H-M_alt    "P 1"
_space_group_IT_number       1

loop_
  _space_group_symop_operation_xyz
  'x, y, z'

loop_
  _atom_site_type_symbol
  _atom_site_label
  _atom_site_symmetry_multiplicity
  _atom_site_fract_x
  _atom_site_fract_y
  _atom_site_fract_z
  _atom_site_occupancy
  C   C1        1.0  0.80967  0.87818  0.94848  1.0000
  O   O1        1.0  0.82886  0.91708  0.96761  1.0000
  C   C2        1.0  0.87431  0.91831  0.97196  1.0000
  C   C3        1.0  0.90301  0.88427  0.95799  1.0000
  C   C4        1.0  0.94911  0.88814  0.96386  1.0000
  C   C5        1.0  0.96724  0.92614  0.98372  1.0000
  C   C6        1.0  0.01652  0.92890  0.98927  1.0000
  O   O2        1.0  0.03912  0.89485  0.98930  1.0000
  N   N1        1.0  0.03415  0.97107  0.99284  1.0000
  C   C7        1.0  0.08139  0.97913  0.99453  1.0000
  C   C8        1.0  0.10182  0.96566  0.03955  1.0000
  C   C9        1.0  0.08808  0.99682  0.07723  1.0000
  C   C10       1.0  0.09882  0.04473  0.06467  1.0000
  C   C11       1.0  0.07726  0.05740  0.02032  1.0000
  N   N2        1.0  0.08493  0.02628  0.98361  1.0000
  C   C12       1.0  0.12079  0.03797  0.95268  1.0000
  C   C13       1.0  0.16787  0.03580  0.96981  1.0000
  C   C14       1.0  0.18854  0.07270  0.98942  1.0000
  C   C15       1.0  0.23233  0.06946  0.00444  1.0000
  C   C16       1.0  0.25433  0.02926  0.99911  1.0000
  N   N3        1.0  0.23579  0.99301  0.98001  1.0000
  C   C17       1.0  0.19319  0.99712  0.96579  1.0000
  C   C18       1.0  0.93868  0.95993  0.99835  1.0000
  C   C19       1.0  0.89217  0.95678  0.99209  1.0000
  C   C20       1.0  0.86281  0.99443  0.00891  1.0000
  N   N4        1.0  0.87834  0.03757  0.99169  1.0000
  C   C21       1.0  0.85256  0.07647  0.00651  1.0000
  C   C22       1.0  0.85238  0.08226  0.05716  1.0000
  C   C23       1.0  0.80515  0.07719  0.98775  1.0000
  H   H1        1.0  0.82068  0.87369  0.91397  1.0000
  H   H2        1.0  0.77348  0.88270  0.94805  1.0000
  H   H3        1.0  0.81689  0.84863  0.96866  1.0000
  H   H4        1.0  0.89069  0.85406  0.94239  1.0000
  H   H5        1.0  0.97087  0.86129  0.95282  1.0000
  H   H6        1.0  0.01589  0.99754  0.98314  1.0000
  H   H7        1.0  0.09609  0.95827  0.96832  1.0000
  H   H8        1.0  0.13825  0.96592  0.03699  1.0000
  H   H9        1.0  0.09241  0.93150  0.04844  1.0000
  H   H10       1.0  0.05231  0.99339  0.08398  1.0000
  H   H11       1.0  0.10567  0.98773  0.10793  1.0000
  H   H12       1.0  0.13501  0.04902  0.06301  1.0000
  H   H13       1.0  0.08684  0.06719  0.09088  1.0000
  H   H14       1.0  0.08708  0.09139  0.01109  1.0000
  H   H15       1.0  0.04110  0.05942  0.02569  1.0000
  H   H16       1.0  0.11816  0.01701  0.92275  1.0000
  H   H17       1.0  0.11469  0.07172  0.93983  1.0000
  H   H18       1.0  0.17067  0.10401  0.99312  1.0000
  H   H19       1.0  0.24889  0.09762  0.01989  1.0000
  H   H20       1.0  0.28850  0.02504  0.01030  1.0000
  H   H21       1.0  0.17958  0.96721  0.95050  1.0000
  H   H22       1.0  0.95186  0.98912  0.01536  1.0000
  H   H23       1.0  0.86423  0.99351  0.04542  1.0000
  H   H24       1.0  0.82810  0.98905  0.99910  1.0000
  H   H25       1.0  0.87729  0.03599  0.95771  1.0000
  H   H26       1.0  0.86987  0.10559  0.99270  1.0000
  H   H27       1.0  0.88628  0.08073  0.07068  1.0000
  H   H28       1.0  0.83845  0.11481  0.06613  1.0000
  H   H29       1.0  0.83222  0.05678  0.07380  1.0000
  H   H30       1.0  0.78432  0.05085  0.00204  1.0000
  H   H31       1.0  0.80535  0.07320  0.95145  1.0000
  H   H32       1.0  0.78907  0.10913  0.99518  1.0000
