data_image0
_chemical_formula_structural       COC4NC5OC5ClC3NCOH19
_chemical_formula_sum              "C19 O3 N2 Cl1 H19"
_cell_length_a       30
_cell_length_b       30
_cell_length_c       30
_cell_angle_alpha    90
_cell_angle_beta     90
_cell_angle_gamma    90

_space_group_name_H-M_alt    "P 1"
_space_group_IT_number       1

loop_
  _space_group_symop_operation_xyz
  'x, y, z'

loop_
  _atom_site_type_symbol
  _atom_site_label
  _atom_site_symmetry_multiplicity
  _atom_site_fract_x
  _atom_site_fract_y
  _atom_site_fract_z
  _atom_site_occupancy
  C   C1        1.0  0.07390  0.86320  0.94389  1.0000
  O   O1        1.0  0.03691  0.89279  0.93877  1.0000
  C   C2        1.0  0.04371  0.93236  0.96261  1.0000
  C   C3        1.0  0.06410  0.96564  0.94025  1.0000
  C   C4        1.0  0.07437  0.01213  0.94913  1.0000
  C   C5        1.0  0.07969  0.03399  0.98756  1.0000
  N   N1        1.0  0.07705  0.02006  0.03090  1.0000
  C   C6        1.0  0.05371  0.05194  0.05382  1.0000
  C   C7        1.0  0.02429  0.04505  0.08667  1.0000
  C   C8        1.0  0.01156  0.00126  0.10294  1.0000
  C   C9        1.0  0.99712  0.96563  0.07953  1.0000
  C   C10       1.0  0.98799  0.95789  0.02964  1.0000
  O   O2        1.0  0.98108  0.99803  0.00505  1.0000
  C   C11       1.0  0.93862  0.01548  0.00346  1.0000
  C   C12       1.0  0.90651  0.00844  0.03666  1.0000
  C   C13       1.0  0.86477  0.02873  0.03417  1.0000
  C   C14       1.0  0.85490  0.05680  0.99869  1.0000
  C   C15       1.0  0.88660  0.06437  0.96545  1.0000
  Cl  Cl1       1.0  0.87178  0.10081  0.92326  1.0000
  C   C16       1.0  0.92857  0.04340  0.96691  1.0000
  C   C17       1.0  0.96297  0.05132  0.93126  1.0000
  C   C18       1.0  0.02655  0.92871  0.01016  1.0000
  N   N2        1.0  0.05876  0.09198  0.03238  1.0000
  C   C19       1.0  0.07495  0.08449  0.98923  1.0000
  O   O3        1.0  0.08015  0.11125  0.95928  1.0000
  H   H1        1.0  0.07889  0.85428  0.97893  1.0000
  H   H2        1.0  0.06650  0.83271  0.92531  1.0000
  H   H3        1.0  0.10437  0.87784  0.93010  1.0000
  H   H4        1.0  0.07249  0.95770  0.90564  1.0000
  H   H5        1.0  0.07432  0.03239  0.91887  1.0000
  H   H6        1.0  0.06893  0.98838  0.03681  1.0000
  H   H7        1.0  0.00662  0.07299  0.10144  1.0000
  H   H8        1.0  0.01361  0.99817  0.13910  1.0000
  H   H9        1.0  0.98980  0.93595  0.09929  1.0000
  H   H10       1.0  0.95778  0.93731  0.02691  1.0000
  H   H11       1.0  0.91317  0.98781  0.06558  1.0000
  H   H12       1.0  0.84022  0.02306  0.06020  1.0000
  H   H13       1.0  0.82250  0.07297  0.99716  1.0000
  H   H14       1.0  0.98155  0.02075  0.92434  1.0000
  H   H15       1.0  0.94817  0.06085  0.89935  1.0000
  H   H16       1.0  0.98596  0.07758  0.94174  1.0000
  H   H17       1.0  0.05577  0.92836  0.03219  1.0000
  H   H18       1.0  0.01464  0.89420  0.01452  1.0000
  H   H19       1.0  0.04409  0.12095  0.04085  1.0000
