data_image0
_chemical_formula_structural       COC6NC2NCOCONC4NC7H28
_chemical_formula_sum              "C22 O3 N4 H28"
_cell_length_a       30
_cell_length_b       30
_cell_length_c       30
_cell_angle_alpha    90
_cell_angle_beta     90
_cell_angle_gamma    90

_space_group_name_H-M_alt    "P 1"
_space_group_IT_number       1

loop_
  _space_group_symop_operation_xyz
  'x, y, z'

loop_
  _atom_site_type_symbol
  _atom_site_label
  _atom_site_symmetry_multiplicity
  _atom_site_fract_x
  _atom_site_fract_y
  _atom_site_fract_z
  _atom_site_occupancy
  C   C1        1.0  0.81748  0.07848  0.99046  1.0000
  O   O1        1.0  0.79635  0.04789  0.02027  1.0000
  C   C2        1.0  0.78141  0.01145  0.99659  1.0000
  C   C3        1.0  0.73635  0.01226  0.98436  1.0000
  C   C4        1.0  0.71862  0.97778  0.95903  1.0000
  C   C5        1.0  0.74594  0.94262  0.94625  1.0000
  C   C6        1.0  0.79078  0.94157  0.95942  1.0000
  C   C7        1.0  0.80986  0.97542  0.98568  1.0000
  N   N1        1.0  0.85440  0.97349  0.99956  1.0000
  C   C8        1.0  0.86350  0.98569  0.04663  1.0000
  C   C9        1.0  0.90140  0.95766  0.06704  1.0000
  N   N2        1.0  0.94154  0.95828  0.03931  1.0000
  C   C10       1.0  0.98252  0.96794  0.05877  1.0000
  O   O2        1.0  0.98763  0.97381  0.09911  1.0000
  C   C11       1.0  0.02480  0.97324  0.02911  1.0000
  O   O3        1.0  0.02525  0.96220  0.98997  1.0000
  N   N3        1.0  0.05939  0.99146  0.05356  1.0000
  C   C12       1.0  0.10258  0.00229  0.03913  1.0000
  C   C13       1.0  0.13178  0.02026  0.07059  1.0000
  C   C14       1.0  0.17534  0.03196  0.05855  1.0000
  C   C15       1.0  0.19134  0.02537  0.01518  1.0000
  N   N4        1.0  0.23434  0.03984  0.00507  1.0000
  C   C16       1.0  0.25702  0.02692  0.96383  1.0000
  C   C17       1.0  0.30708  0.02308  0.97292  1.0000
  C   C18       1.0  0.24877  0.06216  0.92799  1.0000
  C   C19       1.0  0.16130  0.00854  0.98380  1.0000
  C   C20       1.0  0.11759  0.99669  0.99559  1.0000
  C   C21       1.0  0.93424  0.95325  0.99120  1.0000
  C   C22       1.0  0.88567  0.94191  0.97881  1.0000
  H   H1        1.0  0.79417  0.09020  0.96488  1.0000
  H   H2        1.0  0.82818  0.10735  0.01002  1.0000
  H   H3        1.0  0.84713  0.06395  0.97484  1.0000
  H   H4        1.0  0.71550  0.04019  0.99422  1.0000
  H   H5        1.0  0.68380  0.97846  0.94911  1.0000
  H   H6        1.0  0.73245  0.91556  0.92627  1.0000
  H   H7        1.0  0.81024  0.91284  0.94916  1.0000
  H   H8        1.0  0.83389  0.98127  0.06763  1.0000
  H   H9        1.0  0.87337  0.02085  0.04777  1.0000
  H   H10       1.0  0.90855  0.96958  0.10078  1.0000
  H   H11       1.0  0.89101  0.92271  0.06987  1.0000
  H   H12       1.0  0.05179  0.99696  0.08618  1.0000
  H   H13       1.0  0.12119  0.02579  0.10480  1.0000
  H   H14       1.0  0.19690  0.04659  0.08376  1.0000
  H   H15       1.0  0.25445  0.04007  0.03237  1.0000
  H   H16       1.0  0.24566  0.99420  0.95215  1.0000
  H   H17       1.0  0.32096  0.05478  0.98466  1.0000
  H   H18       1.0  0.31369  0.99795  0.99861  1.0000
  H   H19       1.0  0.32506  0.01328  0.94270  1.0000
  H   H20       1.0  0.26575  0.05324  0.89691  1.0000
  H   H21       1.0  0.26102  0.09493  0.93854  1.0000
  H   H22       1.0  0.21323  0.06574  0.92063  1.0000
  H   H23       1.0  0.17092  0.00420  0.94918  1.0000
  H   H24       1.0  0.09617  0.98347  0.96960  1.0000
  H   H25       1.0  0.95596  0.92670  0.97878  1.0000
  H   H26       1.0  0.94386  0.98478  0.97541  1.0000
  H   H27       1.0  0.88283  0.94296  0.94238  1.0000
  H   H28       1.0  0.87800  0.90791  0.98991  1.0000
