data_image0
_chemical_formula_structural       COC4NCOCNC3SC2NC8ClH14
_chemical_formula_sum              "C20 O2 N3 S1 Cl1 H14"
_cell_length_a       30
_cell_length_b       30
_cell_length_c       30
_cell_angle_alpha    90
_cell_angle_beta     90
_cell_angle_gamma    90

_space_group_name_H-M_alt    "P 1"
_space_group_IT_number       1

loop_
  _space_group_symop_operation_xyz
  'x, y, z'

loop_
  _atom_site_type_symbol
  _atom_site_label
  _atom_site_symmetry_multiplicity
  _atom_site_fract_x
  _atom_site_fract_y
  _atom_site_fract_z
  _atom_site_occupancy
  C   C1        1.0  0.23473  0.03567  0.04647  1.0000
  O   O1        1.0  0.19700  0.06387  0.05151  1.0000
  C   C2        1.0  0.15633  0.04725  0.03906  1.0000
  C   C3        1.0  0.14932  0.00459  0.02178  1.0000
  C   C4        1.0  0.10637  0.99041  0.00992  1.0000
  C   C5        1.0  0.06975  0.01855  0.01510  1.0000
  N   N1        1.0  0.02580  0.00668  0.00397  1.0000
  C   C6        1.0  0.01017  0.96685  0.98647  1.0000
  O   O2        1.0  0.03305  0.93432  0.97755  1.0000
  C   C7        1.0  0.96014  0.96740  0.97914  1.0000
  N   N2        1.0  0.94137  0.00692  0.99135  1.0000
  C   C8        1.0  0.89730  0.00996  0.98586  1.0000
  C   C9        1.0  0.87635  0.05196  0.99868  1.0000
  C   C10       1.0  0.83096  0.05903  0.99453  1.0000
  S   S1        1.0  0.81490  0.11096  0.01186  1.0000
  C   C11       1.0  0.86843  0.12500  0.02527  1.0000
  C   C12       1.0  0.89783  0.09079  0.01668  1.0000
  N   N3        1.0  0.87121  0.97758  0.96962  1.0000
  C   C13       1.0  0.89038  0.93912  0.95788  1.0000
  C   C14       1.0  0.86293  0.90581  0.94108  1.0000
  C   C15       1.0  0.87951  0.86441  0.92783  1.0000
  C   C16       1.0  0.92474  0.85582  0.93138  1.0000
  C   C17       1.0  0.95295  0.88872  0.94814  1.0000
  C   C18       1.0  0.93620  0.93103  0.96171  1.0000
  C   C19       1.0  0.07657  0.06126  0.03237  1.0000
  C   C20       1.0  0.11941  0.07544  0.04422  1.0000
  Cl  Cl1       1.0  0.12508  0.12883  0.06538  1.0000
  H   H1        1.0  0.26404  0.05413  0.05790  1.0000
  H   H2        1.0  0.24009  0.02699  0.01143  1.0000
  H   H3        1.0  0.23169  0.00578  0.06719  1.0000
  H   H4        1.0  0.17649  0.98119  0.01698  1.0000
  H   H5        1.0  0.10280  0.95692  0.99665  1.0000
  H   H6        1.0  0.00152  0.02981  0.00911  1.0000
  H   H7        1.0  0.80606  0.03609  0.98206  1.0000
  H   H8        1.0  0.87579  0.15761  0.03878  1.0000
  H   H9        1.0  0.93327  0.09341  0.02302  1.0000
  H   H10       1.0  0.82733  0.91221  0.93815  1.0000
  H   H11       1.0  0.85702  0.83914  0.91484  1.0000
  H   H12       1.0  0.93820  0.82374  0.92121  1.0000
  H   H13       1.0  0.98825  0.88082  0.95045  1.0000
  H   H14       1.0  0.04868  0.08394  0.03680  1.0000
