data_image0
_chemical_formula_structural       COC4OC2ONC5SCO2C3OC2H23
_chemical_formula_sum              "C18 O6 N1 S1 H23"
_cell_length_a       30
_cell_length_b       30
_cell_length_c       30
_cell_angle_alpha    90
_cell_angle_beta     90
_cell_angle_gamma    90

_space_group_name_H-M_alt    "P 1"
_space_group_IT_number       1

loop_
  _space_group_symop_operation_xyz
  'x, y, z'

loop_
  _atom_site_type_symbol
  _atom_site_label
  _atom_site_symmetry_multiplicity
  _atom_site_fract_x
  _atom_site_fract_y
  _atom_site_fract_z
  _atom_site_occupancy
  C   C1        1.0  0.19405  0.11471  0.96467  1.0000
  O   O1        1.0  0.20677  0.07032  0.97550  1.0000
  C   C2        1.0  0.17459  0.03824  0.97177  1.0000
  C   C3        1.0  0.18793  0.99563  0.98521  1.0000
  C   C4        1.0  0.15841  0.95965  0.98325  1.0000
  C   C5        1.0  0.11511  0.96616  0.96795  1.0000
  O   O2        1.0  0.08795  0.92958  0.96714  1.0000
  C   C6        1.0  0.04148  0.93954  0.96712  1.0000
  C   C7        1.0  0.02202  0.95335  0.01286  1.0000
  O   O3        1.0  0.04497  0.96818  0.04331  1.0000
  N   N1        1.0  0.97643  0.94708  0.01683  1.0000
  C   C8        1.0  0.95225  0.96103  0.05674  1.0000
  C   C9        1.0  0.91438  0.92846  0.06695  1.0000
  C   C10       1.0  0.87711  0.92943  0.03220  1.0000
  C   C11       1.0  0.87012  0.97520  0.01091  1.0000
  C   C12       1.0  0.88544  0.01299  0.04137  1.0000
  S   S1        1.0  0.87350  0.06698  0.01797  1.0000
  C   C13       1.0  0.81434  0.07045  0.01848  1.0000
  O   O4        1.0  0.88778  0.06697  0.97181  1.0000
  O   O5        1.0  0.88966  0.10034  0.04902  1.0000
  C   C14       1.0  0.93549  0.00926  0.05211  1.0000
  C   C15       1.0  0.02888  0.97268  0.93090  1.0000
  C   C16       1.0  0.05696  0.01396  0.93503  1.0000
  O   O6        1.0  0.04425  0.05028  0.92119  1.0000
  C   C17       1.0  0.10199  0.00839  0.95381  1.0000
  C   C18       1.0  0.13141  0.04460  0.95580  1.0000
  H   H1        1.0  0.18519  0.11757  0.92938  1.0000
  H   H2        1.0  0.16686  0.12627  0.98611  1.0000
  H   H3        1.0  0.22284  0.13630  0.97065  1.0000
  H   H4        1.0  0.22162  0.99047  0.99758  1.0000
  H   H5        1.0  0.16915  0.92684  0.99419  1.0000
  H   H6        1.0  0.02518  0.90779  0.95897  1.0000
  H   H7        1.0  0.95870  0.93885  0.98933  1.0000
  H   H8        1.0  0.97586  0.95994  0.08464  1.0000
  H   H9        1.0  0.92717  0.89434  0.06996  1.0000
  H   H10       1.0  0.90018  0.93700  0.09958  1.0000
  H   H11       1.0  0.88403  0.90510  0.00580  1.0000
  H   H12       1.0  0.84609  0.91842  0.04813  1.0000
  H   H13       1.0  0.83492  0.97872  0.00195  1.0000
  H   H14       1.0  0.88857  0.97666  0.97935  1.0000
  H   H15       1.0  0.86664  0.01172  0.07274  1.0000
  H   H16       1.0  0.80249  0.06455  0.05236  1.0000
  H   H17       1.0  0.80498  0.10398  0.00778  1.0000
  H   H18       1.0  0.80054  0.04600  0.99539  1.0000
  H   H19       1.0  0.95549  0.02715  0.02723  1.0000
  H   H20       1.0  0.94131  0.02678  0.08372  1.0000
  H   H21       1.0  0.03536  0.95856  0.89783  1.0000
  H   H22       1.0  0.99369  0.98212  0.93301  1.0000
  H   H23       1.0  0.11986  0.07696  0.94445  1.0000
