data_image0
_chemical_formula_structural       COC4NCOC5SO2NC5OC3ClH21
_chemical_formula_sum              "C19 O5 N2 S1 Cl1 H21"
_cell_length_a       30
_cell_length_b       30
_cell_length_c       30
_cell_angle_alpha    90
_cell_angle_beta     90
_cell_angle_gamma    90

_space_group_name_H-M_alt    "P 1"
_space_group_IT_number       1

loop_
  _space_group_symop_operation_xyz
  'x, y, z'

loop_
  _atom_site_type_symbol
  _atom_site_label
  _atom_site_symmetry_multiplicity
  _atom_site_fract_x
  _atom_site_fract_y
  _atom_site_fract_z
  _atom_site_occupancy
  C   C1        1.0  0.28587  0.94340  0.96653  1.0000
  O   O1        1.0  0.27367  0.98445  0.98680  1.0000
  C   C2        1.0  0.22914  0.99313  0.99190  1.0000
  C   C3        1.0  0.19488  0.96505  0.97763  1.0000
  C   C4        1.0  0.15010  0.97675  0.98424  1.0000
  C   C5        1.0  0.13873  0.01662  0.00527  1.0000
  N   N1        1.0  0.09450  0.03067  0.01291  1.0000
  C   C6        1.0  0.05584  0.00733  0.00370  1.0000
  O   O2        1.0  0.05279  0.96939  0.98893  1.0000
  C   C7        1.0  0.01387  0.03156  0.01425  1.0000
  C   C8        1.0  0.00912  0.07721  0.00535  1.0000
  C   C9        1.0  0.96909  0.09885  0.01522  1.0000
  C   C10       1.0  0.93361  0.07497  0.03346  1.0000
  C   C11       1.0  0.93809  0.02920  0.04122  1.0000
  S   S1        1.0  0.89296  0.99909  0.06544  1.0000
  O   O3        1.0  0.91135  0.95908  0.08532  1.0000
  O   O4        1.0  0.86760  0.03040  0.09215  1.0000
  N   N2        1.0  0.86160  0.98376  0.02039  1.0000
  C   C12       1.0  0.87949  0.94906  0.99066  1.0000
  C   C13       1.0  0.85282  0.94588  0.94729  1.0000
  C   C14       1.0  0.80211  0.94650  0.95340  1.0000
  C   C15       1.0  0.78255  0.99363  0.95699  1.0000
  C   C16       1.0  0.79722  0.01960  0.99816  1.0000
  O   O5        1.0  0.84466  0.02349  0.99954  1.0000
  C   C17       1.0  0.97825  0.00740  0.03219  1.0000
  C   C18       1.0  0.17290  0.04491  0.01951  1.0000
  C   C19       1.0  0.21761  0.03326  0.01289  1.0000
  Cl  Cl1       1.0  0.25793  0.07012  0.03150  1.0000
  H   H1        1.0  0.27389  0.94168  0.93210  1.0000
  H   H2        1.0  0.27399  0.91499  0.98611  1.0000
  H   H3        1.0  0.32230  0.94180  0.96567  1.0000
  H   H4        1.0  0.20157  0.93357  0.96109  1.0000
  H   H5        1.0  0.12483  0.95371  0.97235  1.0000
  H   H6        1.0  0.09105  0.06020  0.02887  1.0000
  H   H7        1.0  0.03593  0.09612  0.98994  1.0000
  H   H8        1.0  0.96540  0.13429  0.00845  1.0000
  H   H9        1.0  0.90250  0.09198  0.04121  1.0000
  H   H10       1.0  0.87767  0.91704  0.00814  1.0000
  H   H11       1.0  0.91438  0.95552  0.98238  1.0000
  H   H12       1.0  0.86279  0.97287  0.92471  1.0000
  H   H13       1.0  0.86234  0.91473  0.93067  1.0000
  H   H14       1.0  0.79236  0.92639  0.98232  1.0000
  H   H15       1.0  0.78703  0.93065  0.92409  1.0000
  H   H16       1.0  0.74608  0.99138  0.95687  1.0000
  H   H17       1.0  0.79216  0.01239  0.92710  1.0000
  H   H18       1.0  0.78448  0.00428  0.02883  1.0000
  H   H19       1.0  0.78361  0.05344  0.99662  1.0000
  H   H20       1.0  0.98204  0.97194  0.03894  1.0000
  H   H21       1.0  0.16523  0.07625  0.03596  1.0000
