data_image0
_chemical_formula_structural       COC3O2C2N2C2NC7ClH22
_chemical_formula_sum              "C15 O3 N3 Cl1 H22"
_cell_length_a       30
_cell_length_b       30
_cell_length_c       30
_cell_angle_alpha    90
_cell_angle_beta     90
_cell_angle_gamma    90

_space_group_name_H-M_alt    "P 1"
_space_group_IT_number       1

loop_
  _space_group_symop_operation_xyz
  'x, y, z'

loop_
  _atom_site_type_symbol
  _atom_site_label
  _atom_site_symmetry_multiplicity
  _atom_site_fract_x
  _atom_site_fract_y
  _atom_site_fract_z
  _atom_site_occupancy
  C   C1        1.0  0.18021  0.05223  0.06000  1.0000
  O   O1        1.0  0.18004  0.03637  0.01523  1.0000
  C   C2        1.0  0.13794  0.02644  0.00069  1.0000
  C   C3        1.0  0.12504  0.02788  0.95780  1.0000
  C   C4        1.0  0.15597  0.04198  0.92242  1.0000
  O   O2        1.0  0.15888  0.02404  0.88606  1.0000
  O   O3        1.0  0.17864  0.07924  0.93217  1.0000
  C   C5        1.0  0.07984  0.01367  0.94067  1.0000
  C   C6        1.0  0.08104  0.96313  0.93663  1.0000
  N   N1        1.0  0.05821  0.93527  0.96078  1.0000
  N   N2        1.0  0.03079  0.95361  0.99183  1.0000
  C   C7        1.0  0.01846  0.99823  0.99350  1.0000
  C   C8        1.0  0.97886  0.00909  0.02339  1.0000
  N   N3        1.0  0.94544  0.97282  0.02425  1.0000
  C   C9        1.0  0.92005  0.96984  0.98226  1.0000
  C   C10       1.0  0.87235  0.98736  0.98572  1.0000
  C   C11       1.0  0.84567  0.96173  0.02111  1.0000
  C   C12       1.0  0.80563  0.98926  0.03645  1.0000
  C   C13       1.0  0.87529  0.94788  0.06057  1.0000
  C   C14       1.0  0.91696  0.97698  0.06396  1.0000
  C   C15       1.0  0.04127  0.02825  0.96927  1.0000
  Cl  Cl1       1.0  0.02888  0.08447  0.96825  1.0000
  H   H1        1.0  0.15890  0.08168  0.06345  1.0000
  H   H2        1.0  0.21437  0.06172  0.06852  1.0000
  H   H3        1.0  0.16953  0.02601  0.08305  1.0000
  H   H4        1.0  0.11600  0.01479  0.02695  1.0000
  H   H5        1.0  0.19754  0.08441  0.90612  1.0000
  H   H6        1.0  0.07425  0.02636  0.90679  1.0000
  H   H7        1.0  0.10323  0.94918  0.91081  1.0000
  H   H8        1.0  0.00711  0.93315  0.00585  1.0000
  H   H9        1.0  0.99259  0.01341  0.05707  1.0000
  H   H10       1.0  0.96269  0.04056  0.01432  1.0000
  H   H11       1.0  0.93702  0.98680  0.95468  1.0000
  H   H12       1.0  0.91880  0.93454  0.97273  1.0000
  H   H13       1.0  0.85565  0.98427  0.95334  1.0000
  H   H14       1.0  0.87322  0.02312  0.99348  1.0000
  H   H15       1.0  0.83257  0.93112  0.00588  1.0000
  H   H16       1.0  0.81624  0.01991  0.05322  1.0000
  H   H17       1.0  0.78466  0.99853  0.00805  1.0000
  H   H18       1.0  0.78501  0.97020  0.05978  1.0000
  H   H19       1.0  0.88558  0.91303  0.05611  1.0000
  H   H20       1.0  0.85671  0.94897  0.09202  1.0000
  H   H21       1.0  0.93614  0.96676  0.09334  1.0000
  H   H22       1.0  0.90675  0.01172  0.06933  1.0000
