data_image0
_chemical_formula_structural       COC4NC3OCNCNC3NC2ONH25
_chemical_formula_sum              "C15 O3 N5 H25"
_cell_length_a       30
_cell_length_b       30
_cell_length_c       30
_cell_angle_alpha    90
_cell_angle_beta     90
_cell_angle_gamma    90

_space_group_name_H-M_alt    "P 1"
_space_group_IT_number       1

loop_
  _space_group_symop_operation_xyz
  'x, y, z'

loop_
  _atom_site_type_symbol
  _atom_site_label
  _atom_site_symmetry_multiplicity
  _atom_site_fract_x
  _atom_site_fract_y
  _atom_site_fract_z
  _atom_site_occupancy
  C   C1        1.0  0.86699  0.12320  0.01706  1.0000
  O   O1        1.0  0.87703  0.07702  0.02066  1.0000
  C   C2        1.0  0.91982  0.06680  0.00230  1.0000
  C   C3        1.0  0.92820  0.01623  0.00637  1.0000
  C   C4        1.0  0.97604  0.00520  0.99112  1.0000
  C   C5        1.0  0.00636  0.99599  0.03129  1.0000
  N   N1        1.0  0.04733  0.97097  0.02026  1.0000
  C   C6        1.0  0.07974  0.99716  0.99819  1.0000
  C   C7        1.0  0.09710  0.03440  0.01907  1.0000
  C   C8        1.0  0.12852  0.05858  0.99599  1.0000
  O   O2        1.0  0.14519  0.09581  0.01746  1.0000
  C   C9        1.0  0.17849  0.11850  0.99236  1.0000
  N   N2        1.0  0.14296  0.04807  0.95506  1.0000
  C   C10       1.0  0.12482  0.01121  0.93790  1.0000
  N   N3        1.0  0.09412  0.98522  0.95741  1.0000
  C   C11       1.0  0.04193  0.92616  0.00000  1.0000
  C   C12       1.0  0.01503  0.89377  0.02937  1.0000
  C   C13       1.0  0.97992  0.86729  0.00316  1.0000
  N   N4        1.0  0.94723  0.89506  0.98012  1.0000
  C   C14       1.0  0.91381  0.91497  0.00994  1.0000
  C   C15       1.0  0.88441  0.94685  0.98277  1.0000
  O   O3        1.0  0.85218  0.93293  0.96137  1.0000
  N   N5        1.0  0.89468  0.99125  0.98082  1.0000
  H   H1        1.0  0.89156  0.14305  0.03529  1.0000
  H   H2        1.0  0.86610  0.13336  0.98204  1.0000
  H   H3        1.0  0.83413  0.12898  0.03171  1.0000
  H   H4        1.0  0.92062  0.07705  0.96721  1.0000
  H   H5        1.0  0.94539  0.08525  0.02078  1.0000
  H   H6        1.0  0.92273  0.00664  0.04121  1.0000
  H   H7        1.0  0.99018  0.03273  0.97159  1.0000
  H   H8        1.0  0.97555  0.97699  0.96818  1.0000
  H   H9        1.0  0.98822  0.97728  0.05676  1.0000
  H   H10       1.0  0.01408  0.02767  0.04785  1.0000
  H   H11       1.0  0.08745  0.04397  0.05242  1.0000
  H   H12       1.0  0.16489  0.13148  0.96105  1.0000
  H   H13       1.0  0.18983  0.14697  0.01215  1.0000
  H   H14       1.0  0.20739  0.09703  0.98624  1.0000
  H   H15       1.0  0.13590  0.00127  0.90496  1.0000
  H   H16       1.0  0.02785  0.92875  0.96640  1.0000
  H   H17       1.0  0.07506  0.91104  0.99586  1.0000
  H   H18       1.0  0.99941  0.91001  0.05797  1.0000
  H   H19       1.0  0.03841  0.86968  0.04398  1.0000
  H   H20       1.0  0.99736  0.84736  0.97795  1.0000
  H   H21       1.0  0.96319  0.84344  0.02524  1.0000
  H   H22       1.0  0.93045  0.87647  0.95696  1.0000
  H   H23       1.0  0.89216  0.88912  0.02403  1.0000
  H   H24       1.0  0.92886  0.93262  0.03791  1.0000
  H   H25       1.0  0.87133  0.00921  0.96422  1.0000
