data_image0
_chemical_formula_structural       COC3NC3NC2ONC7ClC2H28
_chemical_formula_sum              "C18 O2 N3 Cl1 H28"
_cell_length_a       30
_cell_length_b       30
_cell_length_c       30
_cell_angle_alpha    90
_cell_angle_beta     90
_cell_angle_gamma    90

_space_group_name_H-M_alt    "P 1"
_space_group_IT_number       1

loop_
  _space_group_symop_operation_xyz
  'x, y, z'

loop_
  _atom_site_type_symbol
  _atom_site_label
  _atom_site_symmetry_multiplicity
  _atom_site_fract_x
  _atom_site_fract_y
  _atom_site_fract_z
  _atom_site_occupancy
  C   C1        1.0  0.75706  0.94487  0.92954  1.0000
  O   O1        1.0  0.77945  0.98660  0.92892  1.0000
  C   C2        1.0  0.80994  0.99181  0.96527  1.0000
  C   C3        1.0  0.85575  0.97332  0.95284  1.0000
  C   C4        1.0  0.88913  0.97502  0.99148  1.0000
  N   N1        1.0  0.89657  0.01941  0.01071  1.0000
  C   C5        1.0  0.91349  0.05329  0.97965  1.0000
  C   C6        1.0  0.95888  0.04397  0.95837  1.0000
  C   C7        1.0  0.99948  0.05682  0.98658  1.0000
  N   N2        1.0  0.99786  0.04839  0.03458  1.0000
  C   C8        1.0  0.04213  0.05213  0.05578  1.0000
  C   C9        1.0  0.07614  0.01693  0.04003  1.0000
  O   O2        1.0  0.06717  0.97705  0.03873  1.0000
  N   N3        1.0  0.11677  0.03568  0.02859  1.0000
  C   C10       1.0  0.15516  0.01418  0.01145  1.0000
  C   C11       1.0  0.15661  0.96884  0.00071  1.0000
  C   C12       1.0  0.19564  0.94932  0.98352  1.0000
  C   C13       1.0  0.19604  0.90087  0.97078  1.0000
  C   C14       1.0  0.23341  0.97575  0.97647  1.0000
  C   C15       1.0  0.23251  0.02096  0.98701  1.0000
  C   C16       1.0  0.19367  0.03996  0.00431  1.0000
  Cl  Cl1       1.0  0.19423  0.09633  0.01663  1.0000
  C   C17       1.0  0.97367  0.00801  0.04769  1.0000
  C   C18       1.0  0.92306  0.01716  0.05193  1.0000
  H   H1        1.0  0.73520  0.94311  0.90041  1.0000
  H   H2        1.0  0.73647  0.94205  0.95948  1.0000
  H   H3        1.0  0.78066  0.91725  0.92793  1.0000
  H   H4        1.0  0.79671  0.97615  0.99556  1.0000
  H   H5        1.0  0.81229  0.02766  0.97173  1.0000
  H   H6        1.0  0.86860  0.99094  0.92352  1.0000
  H   H7        1.0  0.85244  0.93855  0.94216  1.0000
  H   H8        1.0  0.87590  0.95308  0.01764  1.0000
  H   H9        1.0  0.92042  0.95964  0.98059  1.0000
  H   H10       1.0  0.88902  0.05764  0.95285  1.0000
  H   H11       1.0  0.91417  0.08582  0.99642  1.0000
  H   H12       1.0  0.96083  0.06303  0.92719  1.0000
  H   H13       1.0  0.96166  0.00902  0.94820  1.0000
  H   H14       1.0  0.02823  0.04013  0.97131  1.0000
  H   H15       1.0  0.00520  0.09267  0.98213  1.0000
  H   H16       1.0  0.03920  0.04921  0.09210  1.0000
  H   H17       1.0  0.05496  0.08578  0.04962  1.0000
  H   H18       1.0  0.12051  0.06889  0.03354  1.0000
  H   H19       1.0  0.12751  0.94765  0.00514  1.0000
  H   H20       1.0  0.22917  0.88650  0.97537  1.0000
  H   H21       1.0  0.17301  0.88172  0.99151  1.0000
  H   H22       1.0  0.18635  0.89710  0.93584  1.0000
  H   H23       1.0  0.26367  0.96124  0.96263  1.0000
  H   H24       1.0  0.26205  0.04117  0.98146  1.0000
  H   H25       1.0  0.98448  0.99764  0.08109  1.0000
  H   H26       1.0  0.98066  0.97973  0.02565  1.0000
  H   H27       1.0  0.90864  0.99155  0.07375  1.0000
  H   H28       1.0  0.91817  0.04841  0.07042  1.0000
