data_image0
_chemical_formula_structural       COC2NCOC3NC5FC2NOH16
_chemical_formula_sum              "C14 O3 N3 F1 H16"
_cell_length_a       30
_cell_length_b       30
_cell_length_c       30
_cell_angle_alpha    90
_cell_angle_beta     90
_cell_angle_gamma    90

_space_group_name_H-M_alt    "P 1"
_space_group_IT_number       1

loop_
  _space_group_symop_operation_xyz
  'x, y, z'

loop_
  _atom_site_type_symbol
  _atom_site_label
  _atom_site_symmetry_multiplicity
  _atom_site_fract_x
  _atom_site_fract_y
  _atom_site_fract_z
  _atom_site_occupancy
  C   C1        1.0  0.17667  0.04354  0.97766  1.0000
  O   O1        1.0  0.15384  0.04553  0.01915  1.0000
  C   C2        1.0  0.17112  0.01519  0.05152  1.0000
  C   C3        1.0  0.15687  0.96668  0.04367  1.0000
  N   N1        1.0  0.10867  0.96189  0.04166  1.0000
  C   C4        1.0  0.08647  0.95767  0.00164  1.0000
  O   O2        1.0  0.10507  0.95223  0.96567  1.0000
  C   C5        1.0  0.03637  0.95934  0.00682  1.0000
  C   C6        1.0  0.01315  0.95634  0.96175  1.0000
  C   C7        1.0  0.96417  0.95766  0.96728  1.0000
  N   N2        1.0  0.93792  0.99173  0.97527  1.0000
  C   C8        1.0  0.89640  0.97206  0.97744  1.0000
  C   C9        1.0  0.85592  0.99777  0.98574  1.0000
  C   C10       1.0  0.85827  0.04422  0.99133  1.0000
  C   C11       1.0  0.81972  0.06913  0.99931  1.0000
  C   C12       1.0  0.77876  0.04768  0.00171  1.0000
  F   F1        1.0  0.74183  0.07155  0.00938  1.0000
  C   C13       1.0  0.77556  0.00180  0.99628  1.0000
  C   C14       1.0  0.81409  0.97684  0.98830  1.0000
  N   N3        1.0  0.89713  0.92766  0.97150  1.0000
  O   O3        1.0  0.94205  0.91810  0.96471  1.0000
  H   H1        1.0  0.21190  0.05187  0.98215  1.0000
  H   H2        1.0  0.16177  0.06816  0.95530  1.0000
  H   H3        1.0  0.17350  0.01070  0.96227  1.0000
  H   H4        1.0  0.15809  0.02617  0.08383  1.0000
  H   H5        1.0  0.20753  0.01787  0.05315  1.0000
  H   H6        1.0  0.17173  0.95369  0.01300  1.0000
  H   H7        1.0  0.16846  0.94600  0.07141  1.0000
  H   H8        1.0  0.09097  0.97088  0.06893  1.0000
  H   H9        1.0  0.02608  0.93162  0.02833  1.0000
  H   H10       1.0  0.02746  0.99057  0.02362  1.0000
  H   H11       1.0  0.02350  0.98413  0.94038  1.0000
  H   H12       1.0  0.02290  0.92565  0.94443  1.0000
  H   H13       1.0  0.89023  0.06130  0.98945  1.0000
  H   H14       1.0  0.82148  0.10501  0.00361  1.0000
  H   H15       1.0  0.74321  0.98571  0.99826  1.0000
  H   H16       1.0  0.81114  0.94091  0.98407  1.0000
