data_image0
_chemical_formula_structural       COC2NCOC2NC9NC6FC6N2CH28
_chemical_formula_sum              "C28 O2 N5 F1 H28"
_cell_length_a       30
_cell_length_b       30
_cell_length_c       30
_cell_angle_alpha    90
_cell_angle_beta     90
_cell_angle_gamma    90

_space_group_name_H-M_alt    "P 1"
_space_group_IT_number       1

loop_
  _space_group_symop_operation_xyz
  'x, y, z'

loop_
  _atom_site_type_symbol
  _atom_site_label
  _atom_site_symmetry_multiplicity
  _atom_site_fract_x
  _atom_site_fract_y
  _atom_site_fract_z
  _atom_site_occupancy
  C   C1        1.0  0.11673  0.00153  0.84434  1.0000
  O   O1        1.0  0.12643  0.98425  0.88740  1.0000
  C   C2        1.0  0.15628  0.01291  0.91135  1.0000
  C   C3        1.0  0.16376  0.99382  0.95796  1.0000
  N   N1        1.0  0.12174  0.98964  0.98168  1.0000
  C   C4        1.0  0.11887  0.99274  0.02741  1.0000
  O   O2        1.0  0.15065  0.00218  0.05130  1.0000
  C   C5        1.0  0.07242  0.98283  0.04445  1.0000
  C   C6        1.0  0.06527  0.99611  0.09327  1.0000
  N   N2        1.0  0.03617  0.96361  0.11680  1.0000
  C   C7        1.0  0.99035  0.95442  0.10969  1.0000
  C   C8        1.0  0.95987  0.96764  0.14053  1.0000
  C   C9        1.0  0.96443  0.01613  0.14728  1.0000
  C   C10       1.0  0.97046  0.03828  0.10826  1.0000
  C   C11       1.0  0.01088  0.06437  0.10518  1.0000
  C   C12       1.0  0.05178  0.04592  0.09912  1.0000
  C   C13       1.0  0.09122  0.07750  0.09770  1.0000
  C   C14       1.0  0.95376  0.01723  0.06420  1.0000
  C   C15       1.0  0.97177  0.96901  0.06455  1.0000
  N   N3        1.0  0.97470  0.94189  0.03070  1.0000
  C   C16       1.0  0.96700  0.95725  0.98858  1.0000
  C   C17       1.0  0.92882  0.97108  0.96960  1.0000
  C   C18       1.0  0.93188  0.98244  0.92163  1.0000
  C   C19       1.0  0.93019  0.02723  0.90818  1.0000
  C   C20       1.0  0.93248  0.03814  0.86299  1.0000
  C   C21       1.0  0.93636  0.00443  0.83141  1.0000
  F   F1        1.0  0.93866  0.01510  0.78817  1.0000
  C   C22       1.0  0.93790  0.95989  0.84417  1.0000
  C   C23       1.0  0.93555  0.94877  0.88932  1.0000
  C   C24       1.0  0.88584  0.97345  0.99151  1.0000
  C   C25       1.0  0.87617  0.99453  0.02947  1.0000
  C   C26       1.0  0.83105  0.00272  0.04634  1.0000
  C   C27       1.0  0.78949  0.98459  0.02600  1.0000
  N   N4        1.0  0.83172  0.02900  0.08104  1.0000
  N   N5        1.0  0.87747  0.03917  0.09107  1.0000
  C   C28       1.0  0.90329  0.01822  0.06254  1.0000
  H   H1        1.0  0.10146  0.03452  0.84701  1.0000
  H   H2        1.0  0.14709  0.00340  0.82423  1.0000
  H   H3        1.0  0.09323  0.97898  0.82797  1.0000
  H   H4        1.0  0.14162  0.04631  0.91378  1.0000
  H   H5        1.0  0.18807  0.01516  0.89348  1.0000
  H   H6        1.0  0.18677  0.01500  0.97687  1.0000
  H   H7        1.0  0.17785  0.96016  0.95595  1.0000
  H   H8        1.0  0.09692  0.97426  0.96460  1.0000
  H   H9        1.0  0.06751  0.94687  0.04010  1.0000
  H   H10       1.0  0.04871  0.00037  0.02293  1.0000
  H   H11       1.0  0.09701  0.99237  0.11110  1.0000
  H   H12       1.0  0.04206  0.96562  0.15025  1.0000
  H   H13       1.0  0.92476  0.95883  0.13690  1.0000
  H   H14       1.0  0.97987  0.02653  0.17837  1.0000
  H   H15       1.0  0.00650  0.10019  0.10859  1.0000
  H   H16       1.0  0.08189  0.11174  0.10642  1.0000
  H   H17       1.0  0.10574  0.07837  0.06434  1.0000
  H   H18       1.0  0.11680  0.06713  0.12157  1.0000
  H   H19       1.0  0.96692  0.03550  0.03544  1.0000
  H   H20       1.0  0.99673  0.95492  0.96758  1.0000
  H   H21       1.0  0.92710  0.05377  0.93261  1.0000
  H   H22       1.0  0.93106  0.07267  0.85221  1.0000
  H   H23       1.0  0.94078  0.93409  0.81897  1.0000
  H   H24       1.0  0.93617  0.91386  0.89903  1.0000
  H   H25       1.0  0.85882  0.95955  0.97166  1.0000
  H   H26       1.0  0.79250  0.94859  0.02155  1.0000
  H   H27       1.0  0.78373  0.00037  0.99367  1.0000
  H   H28       1.0  0.76094  0.99129  0.04762  1.0000
