data_image0
_chemical_formula_structural       COC2NCOC6FC2H16
_chemical_formula_sum              "C12 O2 N1 F1 H16"
_cell_length_a       30
_cell_length_b       30
_cell_length_c       30
_cell_angle_alpha    90
_cell_angle_beta     90
_cell_angle_gamma    90

_space_group_name_H-M_alt    "P 1"
_space_group_IT_number       1

loop_
  _space_group_symop_operation_xyz
  'x, y, z'

loop_
  _atom_site_type_symbol
  _atom_site_label
  _atom_site_symmetry_multiplicity
  _atom_site_fract_x
  _atom_site_fract_y
  _atom_site_fract_z
  _atom_site_occupancy
  C   C1        1.0  0.84742  0.04627  0.03360  1.0000
  O   O1        1.0  0.86798  0.00482  0.04394  1.0000
  C   C2        1.0  0.85956  0.97112  0.01109  1.0000
  C   C3        1.0  0.88997  0.97634  0.97052  1.0000
  N   N1        1.0  0.93656  0.97673  0.98362  1.0000
  C   C4        1.0  0.96980  0.97413  0.95200  1.0000
  O   O2        1.0  0.96243  0.96787  0.91230  1.0000
  C   C5        1.0  0.01627  0.98073  0.96826  1.0000
  C   C6        1.0  0.04846  0.99571  0.93801  1.0000
  C   C7        1.0  0.09243  0.00236  0.95185  1.0000
  C   C8        1.0  0.10499  0.99382  0.99603  1.0000
  C   C9        1.0  0.15259  0.00119  0.01093  1.0000
  C   C10       1.0  0.15722  0.04305  0.03917  1.0000
  F   F1        1.0  0.18146  0.00524  0.97589  1.0000
  C   C11       1.0  0.07271  0.97827  0.02610  1.0000
  C   C12       1.0  0.02866  0.97164  0.01233  1.0000
  H   H1        1.0  0.86139  0.06054  0.00312  1.0000
  H   H2        1.0  0.85395  0.06934  0.06105  1.0000
  H   H3        1.0  0.81133  0.04221  0.03025  1.0000
  H   H4        1.0  0.82436  0.97124  0.00134  1.0000
  H   H5        1.0  0.86640  0.93905  0.02717  1.0000
  H   H6        1.0  0.88446  0.94908  0.94687  1.0000
  H   H7        1.0  0.88354  0.00777  0.95314  1.0000
  H   H8        1.0  0.94331  0.99174  0.01311  1.0000
  H   H9        1.0  0.03937  0.00230  0.90351  1.0000
  H   H10       1.0  0.11700  0.01410  0.92784  1.0000
  H   H11       1.0  0.16371  0.97205  0.02993  1.0000
  H   H12       1.0  0.19205  0.04775  0.04897  1.0000
  H   H13       1.0  0.14736  0.07267  0.02020  1.0000
  H   H14       1.0  0.13680  0.04147  0.06936  1.0000
  H   H15       1.0  0.08173  0.97086  0.06045  1.0000
  H   H16       1.0  0.00472  0.95855  0.03616  1.0000
