data_image0
_chemical_formula_structural       COC3NC3NCNCOC5ClC2OH20
_chemical_formula_sum              "C16 O3 N3 Cl1 H20"
_cell_length_a       30
_cell_length_b       30
_cell_length_c       30
_cell_angle_alpha    90
_cell_angle_beta     90
_cell_angle_gamma    90

_space_group_name_H-M_alt    "P 1"
_space_group_IT_number       1

loop_
  _space_group_symop_operation_xyz
  'x, y, z'

loop_
  _atom_site_type_symbol
  _atom_site_label
  _atom_site_symmetry_multiplicity
  _atom_site_fract_x
  _atom_site_fract_y
  _atom_site_fract_z
  _atom_site_occupancy
  C   C1        1.0  0.15371  0.03608  0.93848  1.0000
  O   O1        1.0  0.13288  0.00023  0.91552  1.0000
  C   C2        1.0  0.09584  0.98208  0.93942  1.0000
  C   C3        1.0  0.11163  0.94659  0.97230  1.0000
  C   C4        1.0  0.07317  0.92368  0.99656  1.0000
  N   N1        1.0  0.04973  0.95324  0.02736  1.0000
  C   C5        1.0  0.07083  0.96358  0.06990  1.0000
  C   C6        1.0  0.08593  0.01112  0.07182  1.0000
  C   C7        1.0  0.06065  0.04682  0.06304  1.0000
  N   N2        1.0  0.01715  0.04741  0.04892  1.0000
  C   C8        1.0  0.98874  0.00823  0.04677  1.0000
  N   N3        1.0  0.94822  0.02507  0.02781  1.0000
  C   C9        1.0  0.90840  0.00521  0.03880  1.0000
  O   O2        1.0  0.90290  0.98272  0.07245  1.0000
  C   C10       1.0  0.87067  0.01304  0.00777  1.0000
  C   C11       1.0  0.87684  0.01408  0.96147  1.0000
  C   C12       1.0  0.84043  0.02125  0.93337  1.0000
  C   C13       1.0  0.79795  0.02709  0.95142  1.0000
  C   C14       1.0  0.79189  0.02537  0.99749  1.0000
  Cl  Cl1       1.0  0.73936  0.03222  0.01947  1.0000
  C   C15       1.0  0.82797  0.01816  0.02580  1.0000
  C   C16       1.0  0.00935  0.97259  0.01435  1.0000
  O   O3        1.0  0.99154  0.96349  0.97827  1.0000
  H   H1        1.0  0.18139  0.04813  0.91806  1.0000
  H   H2        1.0  0.16702  0.02514  0.97059  1.0000
  H   H3        1.0  0.13017  0.06351  0.94333  1.0000
  H   H4        1.0  0.07384  0.96673  0.91467  1.0000
  H   H5        1.0  0.07703  0.00878  0.95574  1.0000
  H   H6        1.0  0.13498  0.96109  0.99633  1.0000
  H   H7        1.0  0.13082  0.92144  0.95394  1.0000
  H   H8        1.0  0.08580  0.89533  0.01586  1.0000
  H   H9        1.0  0.04977  0.90991  0.97214  1.0000
  H   H10       1.0  0.09948  0.94146  0.07478  1.0000
  H   H11       1.0  0.04734  0.95668  0.09699  1.0000
  H   H12       1.0  0.12000  0.01653  0.08292  1.0000
  H   H13       1.0  0.07454  0.08015  0.06686  1.0000
  H   H14       1.0  0.99983  0.07486  0.05861  1.0000
  H   H15       1.0  0.98277  0.99367  0.07969  1.0000
  H   H16       1.0  0.95212  0.03810  0.99708  1.0000
  H   H17       1.0  0.90945  0.00814  0.94677  1.0000
  H   H18       1.0  0.84510  0.02186  0.89743  1.0000
  H   H19       1.0  0.76968  0.03257  0.92941  1.0000
  H   H20       1.0  0.82310  0.01657  0.06169  1.0000
