data_image0
_chemical_formula_structural       COC2NC4NCOC4OC2ClC6H31
_chemical_formula_sum              "C20 O3 N2 Cl1 H31"
_cell_length_a       30
_cell_length_b       30
_cell_length_c       30
_cell_angle_alpha    90
_cell_angle_beta     90
_cell_angle_gamma    90

_space_group_name_H-M_alt    "P 1"
_space_group_IT_number       1

loop_
  _space_group_symop_operation_xyz
  'x, y, z'

loop_
  _atom_site_type_symbol
  _atom_site_label
  _atom_site_symmetry_multiplicity
  _atom_site_fract_x
  _atom_site_fract_y
  _atom_site_fract_z
  _atom_site_occupancy
  C   C1        1.0  0.19872  0.05849  0.88055  1.0000
  O   O1        1.0  0.16191  0.03434  0.89788  1.0000
  C   C2        1.0  0.17591  0.99802  0.92531  1.0000
  C   C3        1.0  0.13511  0.97389  0.94494  1.0000
  N   N1        1.0  0.11126  0.99943  0.97927  1.0000
  C   C4        1.0  0.13679  0.00653  0.02028  1.0000
  C   C5        1.0  0.10184  0.01228  0.05693  1.0000
  C   C6        1.0  0.05699  0.00536  0.03370  1.0000
  C   C7        1.0  0.02208  0.98294  0.06359  1.0000
  N   N2        1.0  0.97734  0.98270  0.04299  1.0000
  C   C8        1.0  0.95644  0.02491  0.04487  1.0000
  O   O2        1.0  0.97085  0.05641  0.06691  1.0000
  C   C9        1.0  0.91674  0.03506  0.01811  1.0000
  C   C10       1.0  0.87597  0.04269  0.03920  1.0000
  C   C11       1.0  0.83868  0.05487  0.01401  1.0000
  C   C12       1.0  0.84220  0.06043  0.96779  1.0000
  O   O3        1.0  0.80746  0.07202  0.94046  1.0000
  C   C13       1.0  0.76499  0.07856  0.96035  1.0000
  C   C14       1.0  0.88398  0.05417  0.94734  1.0000
  Cl  Cl1       1.0  0.89085  0.06096  0.89047  1.0000
  C   C15       1.0  0.92131  0.04207  0.97236  1.0000
  C   C16       1.0  0.95362  0.93881  0.03424  1.0000
  C   C17       1.0  0.91778  0.93115  0.07026  1.0000
  C   C18       1.0  0.93192  0.93702  0.98768  1.0000
  C   C19       1.0  0.98491  0.89764  0.03593  1.0000
  C   C20       1.0  0.06958  0.97803  0.99287  1.0000
  H   H1        1.0  0.21951  0.03687  0.85978  1.0000
  H   H2        1.0  0.18596  0.08570  0.85990  1.0000
  H   H3        1.0  0.21857  0.07278  0.90763  1.0000
  H   H4        1.0  0.19818  0.00994  0.95168  1.0000
  H   H5        1.0  0.19454  0.97440  0.90452  1.0000
  H   H6        1.0  0.11194  0.96714  0.91747  1.0000
  H   H7        1.0  0.14576  0.94162  0.95846  1.0000
  H   H8        1.0  0.15796  0.03612  0.01762  1.0000
  H   H9        1.0  0.15805  0.97791  0.02841  1.0000
  H   H10       1.0  0.10726  0.98758  0.08333  1.0000
  H   H11       1.0  0.10353  0.04546  0.07210  1.0000
  H   H12       1.0  0.04485  0.03809  0.02260  1.0000
  H   H13       1.0  0.03325  0.94960  0.07260  1.0000
  H   H14       1.0  0.01989  0.00101  0.09534  1.0000
  H   H15       1.0  0.87328  0.03944  0.07522  1.0000
  H   H16       1.0  0.80746  0.06001  0.03153  1.0000
  H   H17       1.0  0.75283  0.04775  0.97563  1.0000
  H   H18       1.0  0.74161  0.08778  0.93391  1.0000
  H   H19       1.0  0.76574  0.10591  0.98448  1.0000
  H   H20       1.0  0.95363  0.03793  0.95643  1.0000
  H   H21       1.0  0.93253  0.93188  0.10371  1.0000
  H   H22       1.0  0.89170  0.95654  0.06949  1.0000
  H   H23       1.0  0.90135  0.89880  0.06591  1.0000
  H   H24       1.0  0.95495  0.94899  0.96202  1.0000
  H   H25       1.0  0.90106  0.95620  0.98592  1.0000
  H   H26       1.0  0.92229  0.90291  0.97863  1.0000
  H   H27       1.0  0.01273  0.90097  0.01258  1.0000
  H   H28       1.0  0.96699  0.86702  0.02695  1.0000
  H   H29       1.0  0.99826  0.89180  0.06945  1.0000
  H   H30       1.0  0.04408  0.98012  0.96684  1.0000
  H   H31       1.0  0.07506  0.94294  0.00153  1.0000
