data_image0
_chemical_formula_structural       COC5OC2OCNC5NC3SC2H26
_chemical_formula_sum              "C19 O3 N2 S1 H26"
_cell_length_a       30
_cell_length_b       30
_cell_length_c       30
_cell_angle_alpha    90
_cell_angle_beta     90
_cell_angle_gamma    90

_space_group_name_H-M_alt    "P 1"
_space_group_IT_number       1

loop_
  _space_group_symop_operation_xyz
  'x, y, z'

loop_
  _atom_site_type_symbol
  _atom_site_label
  _atom_site_symmetry_multiplicity
  _atom_site_fract_x
  _atom_site_fract_y
  _atom_site_fract_z
  _atom_site_occupancy
  C   C1        1.0  0.12495  0.91104  0.97071  1.0000
  O   O1        1.0  0.08930  0.88561  0.98887  1.0000
  C   C2        1.0  0.08432  0.89187  0.03582  1.0000
  C   C3        1.0  0.06249  0.93577  0.04709  1.0000
  C   C4        1.0  0.08023  0.96331  0.08008  1.0000
  C   C5        1.0  0.05972  0.00378  0.09012  1.0000
  C   C6        1.0  0.02134  0.01777  0.06747  1.0000
  O   O2        1.0  0.00561  0.05795  0.08214  1.0000
  C   C7        1.0  0.99956  0.09330  0.05058  1.0000
  C   C8        1.0  0.03732  0.10161  0.01676  1.0000
  O   O3        1.0  0.07334  0.12506  0.03819  1.0000
  C   C9        1.0  0.02045  0.12914  0.97617  1.0000
  N   N1        1.0  0.01973  0.10313  0.93468  1.0000
  C   C10       1.0  0.97566  0.09085  0.91752  1.0000
  C   C11       1.0  0.94776  0.06002  0.94734  1.0000
  C   C12       1.0  0.97295  0.01796  0.96224  1.0000
  C   C13       1.0  0.95945  0.00176  0.00949  1.0000
  C   C14       1.0  0.92527  0.96433  0.00812  1.0000
  N   N2        1.0  0.91809  0.93752  0.97402  1.0000
  C   C15       1.0  0.88504  0.90696  0.98409  1.0000
  C   C16       1.0  0.87264  0.87331  0.95000  1.0000
  C   C17       1.0  0.86707  0.91124  0.02623  1.0000
  S   S1        1.0  0.89189  0.95446  0.05396  1.0000
  C   C18       1.0  0.00169  0.98985  0.03535  1.0000
  C   C19       1.0  0.02333  0.94917  0.02530  1.0000
  H   H1        1.0  0.12728  0.90352  0.93512  1.0000
  H   H2        1.0  0.11885  0.94679  0.97447  1.0000
  H   H3        1.0  0.15653  0.90193  0.98652  1.0000
  H   H4        1.0  0.06291  0.86500  0.04823  1.0000
  H   H5        1.0  0.11675  0.88817  0.05229  1.0000
  H   H6        1.0  0.11021  0.95378  0.09806  1.0000
  H   H7        1.0  0.07411  0.02515  0.11565  1.0000
  H   H8        1.0  0.99600  0.12338  0.07109  1.0000
  H   H9        1.0  0.96727  0.08940  0.03475  1.0000
  H   H10       1.0  0.05213  0.07039  0.00524  1.0000
  H   H11       1.0  0.06148  0.15213  0.05143  1.0000
  H   H12       1.0  0.98802  0.14463  0.98279  1.0000
  H   H13       1.0  0.04348  0.15706  0.97080  1.0000
  H   H14       1.0  0.03630  0.12043  0.91050  1.0000
  H   H15       1.0  0.98086  0.07379  0.88560  1.0000
  H   H16       1.0  0.95651  0.12104  0.90996  1.0000
  H   H17       1.0  0.91784  0.04976  0.92896  1.0000
  H   H18       1.0  0.93541  0.07931  0.97562  1.0000
  H   H19       1.0  0.96814  0.99194  0.93699  1.0000
  H   H20       1.0  0.00884  0.02452  0.96153  1.0000
  H   H21       1.0  0.94256  0.02861  0.02738  1.0000
  H   H22       1.0  0.83732  0.86452  0.95252  1.0000
  H   H23       1.0  0.89247  0.84302  0.95446  1.0000
  H   H24       1.0  0.87867  0.88616  0.91638  1.0000
  H   H25       1.0  0.84123  0.89149  0.04169  1.0000
  H   H26       1.0  0.00962  0.92733  0.99963  1.0000
