data_image0
_chemical_formula_structural       COC2OC5NC5H21
_chemical_formula_sum              "C13 O2 N1 H21"
_cell_length_a       30
_cell_length_b       30
_cell_length_c       30
_cell_angle_alpha    90
_cell_angle_beta     90
_cell_angle_gamma    90

_space_group_name_H-M_alt    "P 1"
_space_group_IT_number       1

loop_
  _space_group_symop_operation_xyz
  'x, y, z'

loop_
  _atom_site_type_symbol
  _atom_site_label
  _atom_site_symmetry_multiplicity
  _atom_site_fract_x
  _atom_site_fract_y
  _atom_site_fract_z
  _atom_site_occupancy
  C   C1        1.0  0.21075  0.97568  0.02848  1.0000
  O   O1        1.0  0.19760  0.97739  0.98306  1.0000
  C   C2        1.0  0.17804  0.01895  0.97020  1.0000
  C   C3        1.0  0.13114  0.02643  0.98902  1.0000
  O   O2        1.0  0.10167  0.99385  0.97063  1.0000
  C   C4        1.0  0.05808  0.99530  0.98387  1.0000
  C   C5        1.0  0.03119  0.96189  0.96580  1.0000
  C   C6        1.0  0.98595  0.95944  0.97647  1.0000
  C   C7        1.0  0.96681  0.99045  0.00565  1.0000
  C   C8        1.0  0.91776  0.98789  0.01699  1.0000
  N   N1        1.0  0.89073  0.00153  0.97886  1.0000
  C   C9        1.0  0.84257  0.00403  0.98694  1.0000
  C   C10       1.0  0.82982  0.04255  0.01784  1.0000
  C   C11       1.0  0.82263  0.96003  0.00323  1.0000
  C   C12       1.0  0.99384  0.02411  0.02348  1.0000
  C   C13       1.0  0.03920  0.02648  0.01272  1.0000
  H   H1        1.0  0.23253  0.00373  0.03677  1.0000
  H   H2        1.0  0.22927  0.94473  0.03378  1.0000
  H   H3        1.0  0.18168  0.97531  0.05043  1.0000
  H   H4        1.0  0.20026  0.04630  0.97984  1.0000
  H   H5        1.0  0.17628  0.01846  0.93373  1.0000
  H   H6        1.0  0.12006  0.05985  0.97921  1.0000
  H   H7        1.0  0.13148  0.02369  0.02540  1.0000
  H   H8        1.0  0.04560  0.93758  0.94311  1.0000
  H   H9        1.0  0.96550  0.93337  0.96172  1.0000
  H   H10       1.0  0.91032  0.95347  0.02674  1.0000
  H   H11       1.0  0.91121  0.00895  0.04610  1.0000
  H   H12       1.0  0.90197  0.03165  0.96780  1.0000
  H   H13       1.0  0.82738  0.01105  0.95441  1.0000
  H   H14       1.0  0.79353  0.04652  0.01885  1.0000
  H   H15       1.0  0.84396  0.07407  0.00601  1.0000
  H   H16       1.0  0.84121  0.03706  0.05206  1.0000
  H   H17       1.0  0.83214  0.93244  0.98129  1.0000
  H   H18       1.0  0.78615  0.96190  0.00332  1.0000
  H   H19       1.0  0.83325  0.95190  0.03719  1.0000
  H   H20       1.0  0.97976  0.04884  0.04594  1.0000
  H   H21       1.0  0.05870  0.05314  0.02741  1.0000
