data_image0
_chemical_formula_structural       COC2ONC13NC3H24
_chemical_formula_sum              "C19 O2 N2 H24"
_cell_length_a       30
_cell_length_b       30
_cell_length_c       30
_cell_angle_alpha    90
_cell_angle_beta     90
_cell_angle_gamma    90

_space_group_name_H-M_alt    "P 1"
_space_group_IT_number       1

loop_
  _space_group_symop_operation_xyz
  'x, y, z'

loop_
  _atom_site_type_symbol
  _atom_site_label
  _atom_site_symmetry_multiplicity
  _atom_site_fract_x
  _atom_site_fract_y
  _atom_site_fract_z
  _atom_site_occupancy
  C   C1        1.0  0.20959  0.98973  0.04953  1.0000
  O   O1        1.0  0.17088  0.98255  0.02320  1.0000
  C   C2        1.0  0.17905  0.99149  0.97737  1.0000
  C   C3        1.0  0.13938  0.98082  0.94690  1.0000
  O   O2        1.0  0.14444  0.95794  0.91311  1.0000
  N   N1        1.0  0.09872  0.99931  0.95758  1.0000
  C   C4        1.0  0.08863  0.02748  0.99569  1.0000
  C   C5        1.0  0.04220  0.04562  0.98585  1.0000
  C   C6        1.0  0.02008  0.00829  0.95883  1.0000
  C   C7        1.0  0.00091  0.97243  0.98863  1.0000
  C   C8        1.0  0.95959  0.97051  0.00566  1.0000
  C   C9        1.0  0.92132  0.00057  0.00323  1.0000
  C   C10       1.0  0.91380  0.04177  0.98380  1.0000
  C   C11       1.0  0.87182  0.06173  0.98897  1.0000
  C   C12       1.0  0.86211  0.10583  0.96734  1.0000
  C   C13       1.0  0.83807  0.03955  0.01306  1.0000
  C   C14       1.0  0.84575  0.99795  0.03304  1.0000
  C   C15       1.0  0.81021  0.97474  0.05927  1.0000
  C   C16       1.0  0.88775  0.97901  0.02796  1.0000
  N   N2        1.0  0.90150  0.93780  0.04640  1.0000
  C   C17       1.0  0.94299  0.93272  0.03385  1.0000
  C   C18       1.0  0.97065  0.89320  0.04628  1.0000
  C   C19       1.0  0.05929  0.99109  0.93061  1.0000
  H   H1        1.0  0.20120  0.98297  0.08434  1.0000
  H   H2        1.0  0.22070  0.02436  0.04675  1.0000
  H   H3        1.0  0.23632  0.96708  0.03940  1.0000
  H   H4        1.0  0.18760  0.02672  0.97281  1.0000
  H   H5        1.0  0.20723  0.97115  0.96603  1.0000
  H   H6        1.0  0.11349  0.05387  0.99947  1.0000
  H   H7        1.0  0.08844  0.00662  0.02564  1.0000
  H   H8        1.0  0.02423  0.05482  0.01623  1.0000
  H   H9        1.0  0.04496  0.07554  0.96499  1.0000
  H   H10       1.0  0.99422  0.02091  0.93647  1.0000
  H   H11       1.0  0.02395  0.94545  0.99645  1.0000
  H   H12       1.0  0.93958  0.05879  0.96515  1.0000
  H   H13       1.0  0.84818  0.10057  0.93405  1.0000
  H   H14       1.0  0.83833  0.12510  0.98723  1.0000
  H   H15       1.0  0.89246  0.12588  0.96439  1.0000
  H   H16       1.0  0.80545  0.05512  0.01637  1.0000
  H   H17       1.0  0.80384  0.94157  0.04546  1.0000
  H   H18       1.0  0.77877  0.99325  0.05840  1.0000
  H   H19       1.0  0.82033  0.97155  0.09418  1.0000
  H   H20       1.0  0.99995  0.90404  0.06504  1.0000
  H   H21       1.0  0.95122  0.87039  0.06704  1.0000
  H   H22       1.0  0.98120  0.87556  0.01619  1.0000
  H   H23       1.0  0.05681  0.95582  0.92152  1.0000
  H   H24       1.0  0.06285  0.01073  0.89999  1.0000
