data_image0
_chemical_formula_structural       COC3NCOCSC10OC6H23
_chemical_formula_sum              "C22 O3 N1 S1 H23"
_cell_length_a       30
_cell_length_b       30
_cell_length_c       30
_cell_angle_alpha    90
_cell_angle_beta     90
_cell_angle_gamma    90

_space_group_name_H-M_alt    "P 1"
_space_group_IT_number       1

loop_
  _space_group_symop_operation_xyz
  'x, y, z'

loop_
  _atom_site_type_symbol
  _atom_site_label
  _atom_site_symmetry_multiplicity
  _atom_site_fract_x
  _atom_site_fract_y
  _atom_site_fract_z
  _atom_site_occupancy
  C   C1        1.0  0.08950  0.16654  0.96888  1.0000
  O   O1        1.0  0.06568  0.12688  0.95882  1.0000
  C   C2        1.0  0.08643  0.08856  0.97792  1.0000
  C   C3        1.0  0.05658  0.04840  0.96960  1.0000
  C   C4        1.0  0.07939  0.00511  0.98332  1.0000
  N   N1        1.0  0.04975  0.96738  0.97747  1.0000
  C   C5        1.0  0.02638  0.94886  0.01275  1.0000
  O   O2        1.0  0.03314  0.96038  0.05149  1.0000
  C   C6        1.0  0.99184  0.91333  0.99875  1.0000
  S   S1        1.0  0.93763  0.92469  0.02518  1.0000
  C   C7        1.0  0.92953  0.98140  0.00841  1.0000
  C   C8        1.0  0.92736  0.01375  0.04201  1.0000
  C   C9        1.0  0.92193  0.05916  0.03167  1.0000
  C   C10       1.0  0.92068  0.09174  0.06524  1.0000
  C   C11       1.0  0.91562  0.13674  0.05456  1.0000
  C   C12       1.0  0.91165  0.14969  0.01022  1.0000
  C   C13       1.0  0.91281  0.11772  0.97645  1.0000
  C   C14       1.0  0.91795  0.07231  0.98660  1.0000
  C   C15       1.0  0.91955  0.03982  0.95294  1.0000
  C   C16       1.0  0.92531  0.99486  0.96389  1.0000
  O   O3        1.0  0.92723  0.96398  0.93026  1.0000
  C   C17       1.0  0.00689  0.86578  0.00813  1.0000
  C   C18       1.0  0.99938  0.83250  0.97598  1.0000
  C   C19       1.0  0.01235  0.78844  0.98369  1.0000
  C   C20       1.0  0.03281  0.77690  0.02372  1.0000
  C   C21       1.0  0.04009  0.80935  0.05614  1.0000
  C   C22       1.0  0.02706  0.85343  0.04852  1.0000
  H   H1        1.0  0.12417  0.16414  0.95755  1.0000
  H   H2        1.0  0.08843  0.17317  0.00471  1.0000
  H   H3        1.0  0.07355  0.19425  0.95150  1.0000
  H   H4        1.0  0.09106  0.09351  0.01385  1.0000
  H   H5        1.0  0.11908  0.08367  0.96224  1.0000
  H   H6        1.0  0.02512  0.05275  0.98785  1.0000
  H   H7        1.0  0.04720  0.04698  0.93427  1.0000
  H   H8        1.0  0.10871  0.99903  0.96240  1.0000
  H   H9        1.0  0.09052  0.00691  0.01804  1.0000
  H   H10       1.0  0.04134  0.95875  0.94587  1.0000
  H   H11       1.0  0.98696  0.91625  0.96268  1.0000
  H   H12       1.0  0.93083  0.00356  0.07672  1.0000
  H   H13       1.0  0.92397  0.08229  0.10007  1.0000
  H   H14       1.0  0.91490  0.16163  0.08087  1.0000
  H   H15       1.0  0.90790  0.18478  0.00185  1.0000
  H   H16       1.0  0.90983  0.12859  0.94205  1.0000
  H   H17       1.0  0.91690  0.05007  0.91821  1.0000
  H   H18       1.0  0.91482  0.97729  0.90345  1.0000
  H   H19       1.0  0.98292  0.84067  0.94471  1.0000
  H   H20       1.0  0.00619  0.76309  0.95854  1.0000
  H   H21       1.0  0.04281  0.74259  0.02981  1.0000
  H   H22       1.0  0.05570  0.80036  0.08758  1.0000
  H   H23       1.0  0.03260  0.87800  0.07468  1.0000
