data_image0
_chemical_formula_structural       CO2C6SOC2ONC10H23
_chemical_formula_sum              "C19 O4 S1 N1 H23"
_cell_length_a       30
_cell_length_b       30
_cell_length_c       30
_cell_angle_alpha    90
_cell_angle_beta     90
_cell_angle_gamma    90

_space_group_name_H-M_alt    "P 1"
_space_group_IT_number       1

loop_
  _space_group_symop_operation_xyz
  'x, y, z'

loop_
  _atom_site_type_symbol
  _atom_site_label
  _atom_site_symmetry_multiplicity
  _atom_site_fract_x
  _atom_site_fract_y
  _atom_site_fract_z
  _atom_site_occupancy
  C   C1        1.0  0.29531  0.01121  0.96286  1.0000
  O   O1        1.0  0.24891  0.00407  0.95651  1.0000
  O   O2        1.0  0.22670  0.03641  0.98537  1.0000
  C   C2        1.0  0.19939  0.01116  0.01523  1.0000
  C   C3        1.0  0.15525  0.99849  0.99465  1.0000
  C   C4        1.0  0.13234  0.02784  0.96648  1.0000
  C   C5        1.0  0.09080  0.01634  0.94883  1.0000
  C   C6        1.0  0.07099  0.97536  0.95940  1.0000
  C   C7        1.0  0.02618  0.96308  0.94036  1.0000
  S   S1        1.0  0.98087  0.95727  0.98038  1.0000
  O   O3        1.0  0.99263  0.92168  0.01345  1.0000
  C   C8        1.0  0.98619  0.01140  0.00661  1.0000
  C   C9        1.0  0.94898  0.02059  0.03940  1.0000
  O   O4        1.0  0.95662  0.03229  0.07793  1.0000
  N   N1        1.0  0.90638  0.01840  0.02219  1.0000
  C   C10       1.0  0.86736  0.02400  0.05049  1.0000
  C   C11       1.0  0.85935  0.07316  0.06173  1.0000
  C   C12       1.0  0.82759  0.00192  0.02820  1.0000
  C   C13       1.0  0.81542  0.95853  0.04090  1.0000
  C   C14       1.0  0.77980  0.93678  0.02032  1.0000
  C   C15       1.0  0.75604  0.95794  0.98653  1.0000
  C   C16       1.0  0.76799  0.00076  0.97316  1.0000
  C   C17       1.0  0.80365  0.02256  0.99369  1.0000
  C   C18       1.0  0.09390  0.94603  0.98760  1.0000
  C   C19       1.0  0.13542  0.95757  0.00524  1.0000
  H   H1        1.0  0.30419  0.00576  0.99779  1.0000
  H   H2        1.0  0.31363  0.98746  0.94219  1.0000
  H   H3        1.0  0.30421  0.04507  0.95274  1.0000
  H   H4        1.0  0.19301  0.03200  0.04450  1.0000
  H   H5        1.0  0.21784  0.98171  0.02653  1.0000
  H   H6        1.0  0.14700  0.05991  0.95792  1.0000
  H   H7        1.0  0.07422  0.03983  0.92675  1.0000
  H   H8        1.0  0.02899  0.93133  0.92252  1.0000
  H   H9        1.0  0.01536  0.98791  0.91584  1.0000
  H   H10       1.0  0.98563  0.03734  0.98097  1.0000
  H   H11       1.0  0.01786  0.01289  0.02459  1.0000
  H   H12       1.0  0.90137  0.00292  0.99267  1.0000
  H   H13       1.0  0.87406  0.00680  0.08209  1.0000
  H   H14       1.0  0.85687  0.09383  0.03174  1.0000
  H   H15       1.0  0.82864  0.07736  0.08103  1.0000
  H   H16       1.0  0.88686  0.08667  0.08156  1.0000
  H   H17       1.0  0.83378  0.94127  0.06702  1.0000
  H   H18       1.0  0.77067  0.90327  0.03066  1.0000
  H   H19       1.0  0.72828  0.94101  0.97055  1.0000
  H   H20       1.0  0.74955  0.01721  0.94666  1.0000
  H   H21       1.0  0.81250  0.05579  0.98229  1.0000
  H   H22       1.0  0.07929  0.91399  0.99649  1.0000
  H   H23       1.0  0.15210  0.93424  0.02742  1.0000
