data_image0
_chemical_formula_structural       CSOC4NCONC2OC6ClC2H17
_chemical_formula_sum              "C16 S1 O3 N2 Cl1 H17"
_cell_length_a       30
_cell_length_b       30
_cell_length_c       30
_cell_angle_alpha    90
_cell_angle_beta     90
_cell_angle_gamma    90

_space_group_name_H-M_alt    "P 1"
_space_group_IT_number       1

loop_
  _space_group_symop_operation_xyz
  'x, y, z'

loop_
  _atom_site_type_symbol
  _atom_site_label
  _atom_site_symmetry_multiplicity
  _atom_site_fract_x
  _atom_site_fract_y
  _atom_site_fract_z
  _atom_site_occupancy
  C   C1        1.0  0.22788  0.02584  0.99459  1.0000
  S   S1        1.0  0.19469  0.07594  0.98869  1.0000
  O   O1        1.0  0.19132  0.08573  0.93974  1.0000
  C   C2        1.0  0.14193  0.05159  0.00450  1.0000
  C   C3        1.0  0.13174  0.04602  0.04959  1.0000
  C   C4        1.0  0.09101  0.02717  0.06227  1.0000
  C   C5        1.0  0.05998  0.01359  0.03015  1.0000
  N   N1        1.0  0.01970  0.99514  0.04562  1.0000
  C   C6        1.0  0.98640  0.97550  0.02077  1.0000
  O   O2        1.0  0.98737  0.96770  0.98077  1.0000
  N   N2        1.0  0.95085  0.96442  0.04752  1.0000
  C   C7        1.0  0.91004  0.94619  0.03004  1.0000
  C   C8        1.0  0.91781  0.89941  0.01056  1.0000
  O   O3        1.0  0.88374  0.93838  0.06902  1.0000
  C   C9        1.0  0.88508  0.97933  0.00025  1.0000
  C   C10       1.0  0.87472  0.96846  0.95566  1.0000
  C   C11       1.0  0.85185  0.99807  0.92783  1.0000
  C   C12       1.0  0.83876  0.03952  0.94370  1.0000
  C   C13       1.0  0.84876  0.05145  0.98738  1.0000
  C   C14       1.0  0.87173  0.02190  0.01537  1.0000
  Cl  Cl1       1.0  0.88239  0.04094  0.06889  1.0000
  C   C15       1.0  0.07014  0.01964  0.98516  1.0000
  C   C16       1.0  0.11084  0.03858  0.97240  1.0000
  H   H1        1.0  0.26184  0.03319  0.98367  1.0000
  H   H2        1.0  0.21411  0.99919  0.97392  1.0000
  H   H3        1.0  0.22853  0.01558  0.02953  1.0000
  H   H4        1.0  0.15515  0.05639  0.07524  1.0000
  H   H5        1.0  0.08395  0.02329  0.09760  1.0000
  H   H6        1.0  0.01610  0.99230  0.07894  1.0000
  H   H7        1.0  0.94559  0.98380  0.07440  1.0000
  H   H8        1.0  0.93872  0.89959  0.98068  1.0000
  H   H9        1.0  0.88611  0.88321  0.00225  1.0000
  H   H10       1.0  0.93413  0.87781  0.03516  1.0000
  H   H11       1.0  0.85270  0.93943  0.05982  1.0000
  H   H12       1.0  0.88489  0.93680  0.94121  1.0000
  H   H13       1.0  0.84469  0.98870  0.89354  1.0000
  H   H14       1.0  0.82119  0.06264  0.92204  1.0000
  H   H15       1.0  0.83876  0.08412  0.99951  1.0000
  H   H16       1.0  0.04693  0.01030  0.95900  1.0000
  H   H17       1.0  0.11791  0.04313  0.93710  1.0000
