data_image0
_chemical_formula_structural       CSO2C4ONC14ClH20
_chemical_formula_sum              "C19 S1 O3 N1 Cl1 H20"
_cell_length_a       30
_cell_length_b       30
_cell_length_c       30
_cell_angle_alpha    90
_cell_angle_beta     90
_cell_angle_gamma    90

_space_group_name_H-M_alt    "P 1"
_space_group_IT_number       1

loop_
  _space_group_symop_operation_xyz
  'x, y, z'

loop_
  _atom_site_type_symbol
  _atom_site_label
  _atom_site_symmetry_multiplicity
  _atom_site_fract_x
  _atom_site_fract_y
  _atom_site_fract_z
  _atom_site_occupancy
  C   C1        1.0  0.19452  0.02838  0.04839  1.0000
  S   S1        1.0  0.14789  0.06469  0.04992  1.0000
  O   O1        1.0  0.12808  0.05940  0.09377  1.0000
  O   O2        1.0  0.16128  0.10849  0.03461  1.0000
  C   C2        1.0  0.10967  0.04244  0.01055  1.0000
  C   C3        1.0  0.06915  0.02527  0.02660  1.0000
  C   C4        1.0  0.03784  0.00742  0.99698  1.0000
  C   C5        1.0  0.99489  0.99022  0.01480  1.0000
  O   O3        1.0  0.97828  0.00912  0.04702  1.0000
  N   N1        1.0  0.97588  0.95344  0.99377  1.0000
  C   C6        1.0  0.00260  0.91491  0.98101  1.0000
  C   C7        1.0  0.97836  0.87573  0.00210  1.0000
  C   C8        1.0  0.92974  0.88913  0.99710  1.0000
  C   C9        1.0  0.93027  0.93975  0.00550  1.0000
  C   C10       1.0  0.89411  0.96257  0.97694  1.0000
  C   C11       1.0  0.88981  0.01236  0.98264  1.0000
  C   C12       1.0  0.90278  0.04133  0.94833  1.0000
  C   C13       1.0  0.89874  0.08739  0.95348  1.0000
  C   C14       1.0  0.88167  0.10496  0.99293  1.0000
  C   C15       1.0  0.86863  0.07648  0.02723  1.0000
  C   C16       1.0  0.87260  0.03041  0.02212  1.0000
  C   C17       1.0  0.04637  0.00794  0.95120  1.0000
  C   C18       1.0  0.08652  0.02532  0.93529  1.0000
  C   C19       1.0  0.11839  0.04260  0.96477  1.0000
  Cl  Cl1       1.0  0.16667  0.06275  0.94096  1.0000
  H   H1        1.0  0.21153  0.03076  0.01643  1.0000
  H   H2        1.0  0.21736  0.03850  0.07489  1.0000
  H   H3        1.0  0.18316  0.99434  0.05448  1.0000
  H   H4        1.0  0.06136  0.02592  0.06209  1.0000
  H   H5        1.0  0.00189  0.91252  0.94458  1.0000
  H   H6        1.0  0.03709  0.91723  0.99254  1.0000
  H   H7        1.0  0.98695  0.87310  0.03753  1.0000
  H   H8        1.0  0.98613  0.84402  0.98592  1.0000
  H   H9        1.0  0.90789  0.87155  0.02042  1.0000
  H   H10       1.0  0.91851  0.88136  0.96318  1.0000
  H   H11       1.0  0.92479  0.94627  0.04106  1.0000
  H   H12       1.0  0.86156  0.94763  0.98456  1.0000
  H   H13       1.0  0.90024  0.95526  0.94159  1.0000
  H   H14       1.0  0.91631  0.02821  0.91738  1.0000
  H   H15       1.0  0.90905  0.10960  0.92680  1.0000
  H   H16       1.0  0.87878  0.14081  0.99711  1.0000
  H   H17       1.0  0.85574  0.09014  0.05820  1.0000
  H   H18       1.0  0.86274  0.00874  0.04944  1.0000
  H   H19       1.0  0.02158  0.99577  0.92772  1.0000
  H   H20       1.0  0.09258  0.02573  0.89951  1.0000
