data_image0
_chemical_formula_structural       CSO2C4OC3ONCONC4ONCH13
_chemical_formula_sum              "C14 S1 O6 N3 H13"
_cell_length_a       30
_cell_length_b       30
_cell_length_c       30
_cell_angle_alpha    90
_cell_angle_beta     90
_cell_angle_gamma    90

_space_group_name_H-M_alt    "P 1"
_space_group_IT_number       1

loop_
  _space_group_symop_operation_xyz
  'x, y, z'

loop_
  _atom_site_type_symbol
  _atom_site_label
  _atom_site_symmetry_multiplicity
  _atom_site_fract_x
  _atom_site_fract_y
  _atom_site_fract_z
  _atom_site_occupancy
  C   C1        1.0  0.18425  0.02357  0.00537  1.0000
  S   S1        1.0  0.15607  0.03288  0.95415  1.0000
  O   O1        1.0  0.16704  0.99601  0.92490  1.0000
  O   O2        1.0  0.16569  0.07835  0.94068  1.0000
  C   C2        1.0  0.10055  0.02844  0.96985  1.0000
  C   C3        1.0  0.07789  0.06523  0.98128  1.0000
  C   C4        1.0  0.03194  0.06089  0.99440  1.0000
  C   C5        1.0  0.01197  0.02099  0.99684  1.0000
  O   O3        1.0  0.96811  0.01868  0.01033  1.0000
  C   C6        1.0  0.94685  0.97797  0.01378  1.0000
  C   C7        1.0  0.96734  0.93932  0.00468  1.0000
  C   C8        1.0  0.94193  0.89757  0.01063  1.0000
  O   O4        1.0  0.95733  0.86030  0.00428  1.0000
  N   N1        1.0  0.89890  0.90222  0.02475  1.0000
  C   C9        1.0  0.87805  0.94127  0.03554  1.0000
  O   O5        1.0  0.84015  0.94037  0.05107  1.0000
  N   N2        1.0  0.90273  0.97979  0.02790  1.0000
  C   C10       1.0  0.88323  0.02280  0.03835  1.0000
  C   C11       1.0  0.83801  0.03647  0.02086  1.0000
  C   C12       1.0  0.87887  0.05940  0.00396  1.0000
  C   C13       1.0  0.01428  0.94035  0.98946  1.0000
  O   O6        1.0  0.03462  0.90611  0.98005  1.0000
  N   N3        1.0  0.03421  0.98204  0.98645  1.0000
  C   C14       1.0  0.08041  0.98291  0.96978  1.0000
  H   H1        1.0  0.17445  0.04924  0.02924  1.0000
  H   H2        1.0  0.17589  0.99042  0.01783  1.0000
  H   H3        1.0  0.22005  0.02566  0.99907  1.0000
  H   H4        1.0  0.09254  0.09837  0.98079  1.0000
  H   H5        1.0  0.01379  0.09112  0.00266  1.0000
  H   H6        1.0  0.88152  0.87392  0.03010  1.0000
  H   H7        1.0  0.89069  0.03304  0.07235  1.0000
  H   H8        1.0  0.81619  0.05449  0.04332  1.0000
  H   H9        1.0  0.82057  0.01415  0.99842  1.0000
  H   H10       1.0  0.88878  0.05270  0.96987  1.0000
  H   H11       1.0  0.88491  0.09336  0.01469  1.0000
  H   H12       1.0  0.10016  0.96039  0.99074  1.0000
  H   H13       1.0  0.08002  0.96925  0.93586  1.0000
