data_image0
_chemical_formula_structural       CSO2C5NCO2H15
_chemical_formula_sum              "C7 S1 O4 N1 H15"
_cell_length_a       30
_cell_length_b       30
_cell_length_c       30
_cell_angle_alpha    90
_cell_angle_beta     90
_cell_angle_gamma    90

_space_group_name_H-M_alt    "P 1"
_space_group_IT_number       1

loop_
  _space_group_symop_operation_xyz
  'x, y, z'

loop_
  _atom_site_type_symbol
  _atom_site_label
  _atom_site_symmetry_multiplicity
  _atom_site_fract_x
  _atom_site_fract_y
  _atom_site_fract_z
  _atom_site_occupancy
  C   C1        1.0  0.88596  0.01542  0.05149  1.0000
  S   S1        1.0  0.89927  0.00204  0.99532  1.0000
  O   O1        1.0  0.87820  0.03596  0.96804  1.0000
  O   O2        1.0  0.88863  0.95529  0.98907  1.0000
  C   C2        1.0  0.95841  0.00943  0.99316  1.0000
  C   C3        1.0  0.98384  0.97110  0.01548  1.0000
  C   C4        1.0  0.03053  0.98366  0.03222  1.0000
  C   C5        1.0  0.06380  0.99502  0.99530  1.0000
  C   C6        1.0  0.11086  0.00074  0.01408  1.0000
  N   N1        1.0  0.14241  0.01218  0.97895  1.0000
  C   C7        1.0  0.97029  0.01592  0.94504  1.0000
  O   O3        1.0  0.98289  0.05103  0.92865  1.0000
  O   O4        1.0  0.96780  0.97904  0.91975  1.0000
  H   H1        1.0  0.90210  0.99170  0.07380  1.0000
  H   H2        1.0  0.84982  0.01323  0.05532  1.0000
  H   H3        1.0  0.89705  0.04936  0.05847  1.0000
  H   H4        1.0  0.96505  0.04093  0.01047  1.0000
  H   H5        1.0  0.98643  0.94226  0.99317  1.0000
  H   H6        1.0  0.96517  0.95938  0.04462  1.0000
  H   H7        1.0  0.04344  0.95534  0.05145  1.0000
  H   H8        1.0  0.02800  0.01172  0.05554  1.0000
  H   H9        1.0  0.06370  0.96854  0.97008  1.0000
  H   H10       1.0  0.05381  0.02600  0.97878  1.0000
  H   H11       1.0  0.12186  0.96992  0.03028  1.0000
  H   H12       1.0  0.11124  0.02706  0.03938  1.0000
  H   H13       1.0  0.13244  0.04068  0.96333  1.0000
  H   H14       1.0  0.14236  0.98800  0.95508  1.0000
  H   H15       1.0  0.97465  0.98904  0.88936  1.0000
