data_image0
_chemical_formula_structural       CSC4ONC5NCNC3NCH22
_chemical_formula_sum              "C15 S1 O1 N4 H22"
_cell_length_a       30
_cell_length_b       30
_cell_length_c       30
_cell_angle_alpha    90
_cell_angle_beta     90
_cell_angle_gamma    90

_space_group_name_H-M_alt    "P 1"
_space_group_IT_number       1

loop_
  _space_group_symop_operation_xyz
  'x, y, z'

loop_
  _atom_site_type_symbol
  _atom_site_label
  _atom_site_symmetry_multiplicity
  _atom_site_fract_x
  _atom_site_fract_y
  _atom_site_fract_z
  _atom_site_occupancy
  C   C1        1.0  0.84424  0.94147  0.08025  1.0000
  S   S1        1.0  0.86104  0.91654  0.02770  1.0000
  C   C2        1.0  0.91311  0.89518  0.04298  1.0000
  C   C3        1.0  0.91603  0.84530  0.04775  1.0000
  C   C4        1.0  0.94907  0.92078  0.05050  1.0000
  C   C5        1.0  0.95183  0.96985  0.04608  1.0000
  O   O1        1.0  0.96432  0.99271  0.07732  1.0000
  N   N1        1.0  0.94123  0.98532  0.00441  1.0000
  C   C6        1.0  0.94098  0.03226  0.99323  1.0000
  C   C7        1.0  0.98732  0.05427  0.99414  1.0000
  C   C8        1.0  0.98291  0.10454  0.98509  1.0000
  C   C9        1.0  0.02662  0.12619  0.96993  1.0000
  C   C10       1.0  0.06752  0.09834  0.98203  1.0000
  N   N2        1.0  0.06345  0.05440  0.96182  1.0000
  C   C11       1.0  0.10096  0.02744  0.96169  1.0000
  N   N3        1.0  0.09777  0.98610  0.94453  1.0000
  C   C12       1.0  0.13480  0.96086  0.94389  1.0000
  C   C13       1.0  0.17541  0.97497  0.95959  1.0000
  C   C14       1.0  0.17583  0.01753  0.97622  1.0000
  N   N4        1.0  0.13958  0.04395  0.97752  1.0000
  C   C15       1.0  0.01985  0.03224  0.96116  1.0000
  H   H1        1.0  0.86851  0.96639  0.09133  1.0000
  H   H2        1.0  0.81191  0.95799  0.07560  1.0000
  H   H3        1.0  0.84048  0.91581  0.10611  1.0000
  H   H4        1.0  0.90452  0.82875  0.01745  1.0000
  H   H5        1.0  0.89565  0.83395  0.07581  1.0000
  H   H6        1.0  0.95055  0.83392  0.05368  1.0000
  H   H7        1.0  0.98026  0.90621  0.06191  1.0000
  H   H8        1.0  0.92640  0.96361  0.98301  1.0000
  H   H9        1.0  0.92650  0.03500  0.95976  1.0000
  H   H10       1.0  0.91847  0.04919  0.01691  1.0000
  H   H11       1.0  0.00136  0.05049  0.02771  1.0000
  H   H12       1.0  0.95731  0.11103  0.95971  1.0000
  H   H13       1.0  0.97121  0.12095  0.01569  1.0000
  H   H14       1.0  0.02547  0.13052  0.93350  1.0000
  H   H15       1.0  0.02928  0.15971  0.98451  1.0000
  H   H16       1.0  0.09705  0.11588  0.96929  1.0000
  H   H17       1.0  0.07080  0.09571  0.01847  1.0000
  H   H18       1.0  0.13051  0.92753  0.93002  1.0000
  H   H19       1.0  0.20480  0.95405  0.95908  1.0000
  H   H20       1.0  0.20617  0.03225  0.98955  1.0000
  H   H21       1.0  0.02250  0.99677  0.96972  1.0000
  H   H22       1.0  0.00642  0.03406  0.92712  1.0000
