data_image0
_chemical_formula_structural       CSC4SCO2H10
_chemical_formula_sum              "C6 S2 O2 H10"
_cell_length_a       30
_cell_length_b       30
_cell_length_c       30
_cell_angle_alpha    90
_cell_angle_beta     90
_cell_angle_gamma    90

_space_group_name_H-M_alt    "P 1"
_space_group_IT_number       1

loop_
  _space_group_symop_operation_xyz
  'x, y, z'

loop_
  _atom_site_type_symbol
  _atom_site_label
  _atom_site_symmetry_multiplicity
  _atom_site_fract_x
  _atom_site_fract_y
  _atom_site_fract_z
  _atom_site_occupancy
  C   C1        1.0  0.11192  0.99534  0.00086  1.0000
  S   S1        1.0  0.07441  0.01663  0.04302  1.0000
  C   C2        1.0  0.02157  0.00925  0.01326  1.0000
  C   C3        1.0  0.98327  0.02321  0.04427  1.0000
  C   C4        1.0  0.93732  0.00425  0.03251  1.0000
  C   C5        1.0  0.92064  0.01338  0.98532  1.0000
  S   S2        1.0  0.95597  0.99586  0.93948  1.0000
  C   C6        1.0  0.98726  0.95376  0.96588  1.0000
  O   O1        1.0  0.98265  0.91512  0.95363  1.0000
  O   O2        1.0  0.01644  0.96391  0.99935  1.0000
  H   H1        1.0  0.10614  0.95982  0.99525  1.0000
  H   H2        1.0  0.14628  0.99969  0.01220  1.0000
  H   H3        1.0  0.10768  0.01362  0.96963  1.0000
  H   H4        1.0  0.02371  0.03163  0.98452  1.0000
  H   H5        1.0  0.98150  0.05973  0.04561  1.0000
  H   H6        1.0  0.99012  0.01201  0.07846  1.0000
  H   H7        1.0  0.91302  0.01832  0.05597  1.0000
  H   H8        1.0  0.93694  0.96823  0.03894  1.0000
  H   H9        1.0  0.88829  0.99701  0.98100  1.0000
  H   H10       1.0  0.91486  0.04921  0.98132  1.0000
