data_image0
_chemical_formula_structural       CSCNC2NC6NOC2NCSH16
_chemical_formula_sum              "C13 S2 N4 O1 H16"
_cell_length_a       30
_cell_length_b       30
_cell_length_c       30
_cell_angle_alpha    90
_cell_angle_beta     90
_cell_angle_gamma    90

_space_group_name_H-M_alt    "P 1"
_space_group_IT_number       1

loop_
  _space_group_symop_operation_xyz
  'x, y, z'

loop_
  _atom_site_type_symbol
  _atom_site_label
  _atom_site_symmetry_multiplicity
  _atom_site_fract_x
  _atom_site_fract_y
  _atom_site_fract_z
  _atom_site_occupancy
  C   C1        1.0  0.15538  0.00417  0.03600  1.0000
  S   S1        1.0  0.17225  0.02000  0.98049  1.0000
  C   C2        1.0  0.12908  0.99699  0.94875  1.0000
  N   N1        1.0  0.09748  0.97243  0.96647  1.0000
  C   C3        1.0  0.06761  0.95870  0.93374  1.0000
  C   C4        1.0  0.02861  0.92942  0.94569  1.0000
  N   N2        1.0  0.99709  0.94928  0.97769  1.0000
  C   C5        1.0  0.01494  0.95033  0.02294  1.0000
  C   C6        1.0  0.98000  0.99278  0.96242  1.0000
  C   C7        1.0  0.93615  0.00691  0.98363  1.0000
  C   C8        1.0  0.93568  0.02944  0.02424  1.0000
  C   C9        1.0  0.89467  0.04122  0.04284  1.0000
  C   C10       1.0  0.89075  0.06470  0.08633  1.0000
  N   N3        1.0  0.92746  0.08632  0.10241  1.0000
  O   O1        1.0  0.85557  0.06536  0.10707  1.0000
  C   C11       1.0  0.85544  0.02979  0.02070  1.0000
  C   C12       1.0  0.85889  0.00787  0.98042  1.0000
  N   N4        1.0  0.89811  0.99670  0.96135  1.0000
  C   C13       1.0  0.07784  0.97366  0.89131  1.0000
  S   S2        1.0  0.12518  0.00550  0.89242  1.0000
  H   H1        1.0  0.12258  0.01787  0.04396  1.0000
  H   H2        1.0  0.17937  0.01749  0.05997  1.0000
  H   H3        1.0  0.15456  0.96791  0.03950  1.0000
  H   H4        1.0  0.01016  0.92093  0.91523  1.0000
  H   H5        1.0  0.04120  0.89747  0.95844  1.0000
  H   H6        1.0  0.03884  0.97742  0.02834  1.0000
  H   H7        1.0  0.03126  0.91874  0.03144  1.0000
  H   H8        1.0  0.98788  0.95412  0.04719  1.0000
  H   H9        1.0  0.97351  0.99110  0.92644  1.0000
  H   H10       1.0  0.00471  0.01940  0.96690  1.0000
  H   H11       1.0  0.96687  0.03644  0.04106  1.0000
  H   H12       1.0  0.95498  0.09277  0.08421  1.0000
  H   H13       1.0  0.92337  0.10352  0.13116  1.0000
  H   H14       1.0  0.82296  0.03768  0.03462  1.0000
  H   H15       1.0  0.82935  0.99820  0.96183  1.0000
  H   H16       1.0  0.06022  0.96737  0.86050  1.0000
