data_image0
_chemical_formula_structural       CSC7ONC3NC2SH14
_chemical_formula_sum              "C13 S2 O1 N2 H14"
_cell_length_a       30
_cell_length_b       30
_cell_length_c       30
_cell_angle_alpha    90
_cell_angle_beta     90
_cell_angle_gamma    90

_space_group_name_H-M_alt    "P 1"
_space_group_IT_number       1

loop_
  _space_group_symop_operation_xyz
  'x, y, z'

loop_
  _atom_site_type_symbol
  _atom_site_label
  _atom_site_symmetry_multiplicity
  _atom_site_fract_x
  _atom_site_fract_y
  _atom_site_fract_z
  _atom_site_occupancy
  C   C1        1.0  0.04147  0.08076  0.02386  1.0000
  S   S1        1.0  0.03925  0.02933  0.05564  1.0000
  C   C2        1.0  0.07304  0.99472  0.02041  1.0000
  C   C3        1.0  0.11926  0.00286  0.02208  1.0000
  C   C4        1.0  0.14924  0.97710  0.99756  1.0000
  C   C5        1.0  0.13360  0.94242  0.97123  1.0000
  C   C6        1.0  0.08797  0.93363  0.96945  1.0000
  C   C7        1.0  0.05710  0.95948  0.99370  1.0000
  C   C8        1.0  0.00931  0.94612  0.98795  1.0000
  O   O1        1.0  0.99985  0.90826  0.97559  1.0000
  N   N1        1.0  0.97736  0.97787  0.99523  1.0000
  C   C9        1.0  0.92986  0.96858  0.99279  1.0000
  C   C10       1.0  0.91374  0.94578  0.03537  1.0000
  C   C11       1.0  0.90614  0.01256  0.98607  1.0000
  N   N2        1.0  0.92006  0.05119  0.00213  1.0000
  C   C12       1.0  0.89074  0.08449  0.98995  1.0000
  C   C13       1.0  0.85491  0.07113  0.96455  1.0000
  S   S2        1.0  0.85763  0.01484  0.95540  1.0000
  H   H1        1.0  0.02007  0.10555  0.03983  1.0000
  H   H2        1.0  0.07548  0.09380  0.02279  1.0000
  H   H3        1.0  0.02953  0.07531  0.98985  1.0000
  H   H4        1.0  0.13250  0.02930  0.04313  1.0000
  H   H5        1.0  0.18479  0.98393  0.99941  1.0000
  H   H6        1.0  0.15673  0.92200  0.95222  1.0000
  H   H7        1.0  0.07631  0.90617  0.94872  1.0000
  H   H8        1.0  0.98594  0.00728  0.00959  1.0000
  H   H9        1.0  0.92412  0.94644  0.96428  1.0000
  H   H10       1.0  0.91991  0.96659  0.06477  1.0000
  H   H11       1.0  0.93101  0.91405  0.04061  1.0000
  H   H12       1.0  0.87790  0.93892  0.03391  1.0000
  H   H13       1.0  0.89711  0.11840  0.00060  1.0000
  H   H14       1.0  0.82806  0.09115  0.95132  1.0000
