data_image0
_chemical_formula_structural       CSCNC2NCN2CSC9OH18
_chemical_formula_sum              "C15 S2 N4 O1 H18"
_cell_length_a       30
_cell_length_b       30
_cell_length_c       30
_cell_angle_alpha    90
_cell_angle_beta     90
_cell_angle_gamma    90

_space_group_name_H-M_alt    "P 1"
_space_group_IT_number       1

loop_
  _space_group_symop_operation_xyz
  'x, y, z'

loop_
  _atom_site_type_symbol
  _atom_site_label
  _atom_site_symmetry_multiplicity
  _atom_site_fract_x
  _atom_site_fract_y
  _atom_site_fract_z
  _atom_site_occupancy
  C   C1        1.0  0.23814  0.05192  0.03474  1.0000
  S   S1        1.0  0.17838  0.05341  0.04233  1.0000
  C   C2        1.0  0.16203  0.00978  0.00776  1.0000
  N   N1        1.0  0.19011  0.98550  0.98450  1.0000
  C   C3        1.0  0.16429  0.95547  0.96227  1.0000
  C   C4        1.0  0.12006  0.96168  0.97219  1.0000
  N   N2        1.0  0.11788  0.99695  0.00179  1.0000
  C   C5        1.0  0.08080  0.01682  0.02233  1.0000
  N   N3        1.0  0.03852  0.00733  0.01871  1.0000
  N   N4        1.0  0.02686  0.97277  0.99075  1.0000
  C   C6        1.0  0.98448  0.96479  0.98976  1.0000
  S   S2        1.0  0.96403  0.92169  0.95562  1.0000
  C   C7        1.0  0.90620  0.93215  0.97063  1.0000
  C   C8        1.0  0.87932  0.88925  0.97174  1.0000
  C   C9        1.0  0.90968  0.95443  0.01618  1.0000
  C   C10       1.0  0.94771  0.98865  0.01450  1.0000
  C   C11       1.0  0.93648  0.03207  0.98989  1.0000
  C   C12       1.0  0.89954  0.05727  0.01121  1.0000
  C   C13       1.0  0.85840  0.07148  0.99643  1.0000
  C   C14       1.0  0.83838  0.09410  0.03268  1.0000
  C   C15       1.0  0.86859  0.09233  0.06710  1.0000
  O   O1        1.0  0.90584  0.07005  0.05434  1.0000
  H   H1        1.0  0.25170  0.01982  0.04546  1.0000
  H   H2        1.0  0.24686  0.05779  0.99984  1.0000
  H   H3        1.0  0.25339  0.07814  0.05494  1.0000
  H   H4        1.0  0.17869  0.93081  0.94020  1.0000
  H   H5        1.0  0.09094  0.94403  0.96067  1.0000
  H   H6        1.0  0.08796  0.04473  0.04505  1.0000
  H   H7        1.0  0.89179  0.95509  0.94616  1.0000
  H   H8        1.0  0.89305  0.86507  0.99543  1.0000
  H   H9        1.0  0.87820  0.87355  0.93880  1.0000
  H   H10       1.0  0.84491  0.89617  0.98181  1.0000
  H   H11       1.0  0.87785  0.96951  0.02577  1.0000
  H   H12       1.0  0.91725  0.92945  0.04191  1.0000
  H   H13       1.0  0.95845  0.99598  0.04866  1.0000
  H   H14       1.0  0.96593  0.05373  0.98884  1.0000
  H   H15       1.0  0.92802  0.02541  0.95495  1.0000
  H   H16       1.0  0.84461  0.06626  0.96354  1.0000
  H   H17       1.0  0.80602  0.10989  0.03364  1.0000
  H   H18       1.0  0.86869  0.10469  0.10095  1.0000
