data_image0
_chemical_formula_structural       CSC5NCONC2N2CSC3OCH24
_chemical_formula_sum              "C14 S2 N4 O2 H24"
_cell_length_a       30
_cell_length_b       30
_cell_length_c       30
_cell_angle_alpha    90
_cell_angle_beta     90
_cell_angle_gamma    90

_space_group_name_H-M_alt    "P 1"
_space_group_IT_number       1

loop_
  _space_group_symop_operation_xyz
  'x, y, z'

loop_
  _atom_site_type_symbol
  _atom_site_label
  _atom_site_symmetry_multiplicity
  _atom_site_fract_x
  _atom_site_fract_y
  _atom_site_fract_z
  _atom_site_occupancy
  C   C1        1.0  0.78084  0.01683  0.05855  1.0000
  S   S1        1.0  0.83949  0.00337  0.06350  1.0000
  C   C2        1.0  0.85217  0.99110  0.00482  1.0000
  C   C3        1.0  0.85474  0.03366  0.97630  1.0000
  C   C4        1.0  0.90226  0.04792  0.96418  1.0000
  C   C5        1.0  0.93485  0.03973  0.00224  1.0000
  C   C6        1.0  0.93746  0.99007  0.01490  1.0000
  N   N1        1.0  0.97644  0.96889  0.99455  1.0000
  C   C7        1.0  0.01834  0.97470  0.01287  1.0000
  O   O1        1.0  0.02697  0.99565  0.04665  1.0000
  N   N2        1.0  0.05218  0.95488  0.98736  1.0000
  C   C8        1.0  0.05008  0.91629  0.96150  1.0000
  C   C9        1.0  0.01228  0.88442  0.96002  1.0000
  N   N3        1.0  0.08831  0.91013  0.94083  1.0000
  N   N4        1.0  0.11714  0.94254  0.95451  1.0000
  C   C10       1.0  0.09613  0.96823  0.98309  1.0000
  S   S2        1.0  0.11915  0.01530  0.00749  1.0000
  C   C11       1.0  0.17805  0.00716  0.99422  1.0000
  C   C12       1.0  0.20899  0.04365  0.01256  1.0000
  C   C13       1.0  0.19680  0.09079  0.99799  1.0000
  O   O2        1.0  0.21068  0.04137  0.06008  1.0000
  C   C14       1.0  0.89530  0.96389  0.00183  1.0000
  H   H1        1.0  0.76745  0.02384  0.09172  1.0000
  H   H2        1.0  0.77593  0.04633  0.03778  1.0000
  H   H3        1.0  0.76250  0.98867  0.04448  1.0000
  H   H4        1.0  0.82478  0.97023  0.99260  1.0000
  H   H5        1.0  0.83672  0.02787  0.94497  1.0000
  H   H6        1.0  0.83757  0.06169  0.99225  1.0000
  H   H7        1.0  0.91337  0.02959  0.93454  1.0000
  H   H8        1.0  0.90230  0.08330  0.95505  1.0000
  H   H9        1.0  0.92375  0.05895  0.03132  1.0000
  H   H10       1.0  0.96773  0.05293  0.99329  1.0000
  H   H11       1.0  0.94214  0.98800  0.05112  1.0000
  H   H12       1.0  0.97443  0.96251  0.96149  1.0000
  H   H13       1.0  0.99678  0.88030  0.99277  1.0000
  H   H14       1.0  0.98710  0.89519  0.93595  1.0000
  H   H15       1.0  0.02412  0.85153  0.94948  1.0000
  H   H16       1.0  0.18157  0.00578  0.95790  1.0000
  H   H17       1.0  0.18819  0.97492  0.00807  1.0000
  H   H18       1.0  0.24279  0.03636  0.00069  1.0000
  H   H19       1.0  0.22284  0.11420  0.00839  1.0000
  H   H20       1.0  0.16600  0.10235  0.01377  1.0000
  H   H21       1.0  0.19329  0.09301  0.96175  1.0000
  H   H22       1.0  0.22842  0.06633  0.07067  1.0000
  H   H23       1.0  0.89307  0.93340  0.02198  1.0000
  H   H24       1.0  0.89853  0.95211  0.96727  1.0000
