data_image0
_chemical_formula_structural       CSC6NCNC4NOC2H29
_chemical_formula_sum              "C14 S1 N3 O1 H29"
_cell_length_a       30
_cell_length_b       30
_cell_length_c       30
_cell_angle_alpha    90
_cell_angle_beta     90
_cell_angle_gamma    90

_space_group_name_H-M_alt    "P 1"
_space_group_IT_number       1

loop_
  _space_group_symop_operation_xyz
  'x, y, z'

loop_
  _atom_site_type_symbol
  _atom_site_label
  _atom_site_symmetry_multiplicity
  _atom_site_fract_x
  _atom_site_fract_y
  _atom_site_fract_z
  _atom_site_occupancy
  C   C1        1.0  0.92610  0.15804  0.95397  1.0000
  S   S1        1.0  0.96437  0.12084  0.98200  1.0000
  C   C2        1.0  0.94371  0.06809  0.95978  1.0000
  C   C3        1.0  0.96948  0.02742  0.97815  1.0000
  C   C4        1.0  0.94330  0.98413  0.96728  1.0000
  C   C5        1.0  0.91753  0.96484  0.00710  1.0000
  C   C6        1.0  0.88020  0.99505  0.02437  1.0000
  C   C7        1.0  0.85418  0.97490  0.06337  1.0000
  N   N1        1.0  0.82824  0.93597  0.05017  1.0000
  C   C8        1.0  0.01720  0.02589  0.95807  1.0000
  N   N2        1.0  0.04450  0.98767  0.97317  1.0000
  C   C9        1.0  0.08477  0.98415  0.94539  1.0000
  C   C10       1.0  0.11187  0.94282  0.95783  1.0000
  C   C11       1.0  0.12492  0.94280  0.00717  1.0000
  C   C12       1.0  0.16224  0.97594  0.01689  1.0000
  N   N3        1.0  0.20118  0.96832  0.99460  1.0000
  O   O1        1.0  0.15943  0.00723  0.04298  1.0000
  C   C13       1.0  0.08382  0.95146  0.03617  1.0000
  C   C14       1.0  0.05685  0.99188  0.02050  1.0000
  H   H1        1.0  0.89177  0.15064  0.96370  1.0000
  H   H2        1.0  0.93367  0.19241  0.96342  1.0000
  H   H3        1.0  0.92957  0.15493  0.91783  1.0000
  H   H4        1.0  0.90843  0.06581  0.96869  1.0000
  H   H5        1.0  0.94591  0.06903  0.92334  1.0000
  H   H6        1.0  0.97204  0.03090  0.01444  1.0000
  H   H7        1.0  0.92015  0.98976  0.93952  1.0000
  H   H8        1.0  0.96601  0.95790  0.95582  1.0000
  H   H9        1.0  0.94093  0.95754  0.03423  1.0000
  H   H10       1.0  0.90350  0.93280  0.99653  1.0000
  H   H11       1.0  0.85721  0.00311  0.99709  1.0000
  H   H12       1.0  0.89445  0.02664  0.03590  1.0000
  H   H13       1.0  0.87698  0.96587  0.09044  1.0000
  H   H14       1.0  0.83123  0.00011  0.07646  1.0000
  H   H15       1.0  0.81114  0.92430  0.07712  1.0000
  H   H16       1.0  0.84911  0.91085  0.04085  1.0000
  H   H17       1.0  0.01345  0.02390  0.92169  1.0000
  H   H18       1.0  0.03508  0.05703  0.96493  1.0000
  H   H19       1.0  0.10544  0.01421  0.94824  1.0000
  H   H20       1.0  0.07525  0.98092  0.91023  1.0000
  H   H21       1.0  0.09191  0.91294  0.95085  1.0000
  H   H22       1.0  0.14126  0.94081  0.93623  1.0000
  H   H23       1.0  0.13823  0.90984  0.01591  1.0000
  H   H24       1.0  0.22729  0.98786  0.00326  1.0000
  H   H25       1.0  0.20798  0.93839  0.98071  1.0000
  H   H26       1.0  0.09342  0.95611  0.07113  1.0000
  H   H27       1.0  0.06229  0.92187  0.03516  1.0000
  H   H28       1.0  0.07547  0.02278  0.02639  1.0000
  H   H29       1.0  0.02695  0.99333  0.04138  1.0000
