data_image0
_chemical_formula_structural       CSC2OC2NCNC2N2H6
_chemical_formula_sum              "C8 S1 O1 N4 H6"
_cell_length_a       30
_cell_length_b       30
_cell_length_c       30
_cell_angle_alpha    90
_cell_angle_beta     90
_cell_angle_gamma    90

_space_group_name_H-M_alt    "P 1"
_space_group_IT_number       1

loop_
  _space_group_symop_operation_xyz
  'x, y, z'

loop_
  _atom_site_type_symbol
  _atom_site_label
  _atom_site_symmetry_multiplicity
  _atom_site_fract_x
  _atom_site_fract_y
  _atom_site_fract_z
  _atom_site_occupancy
  C   C1        1.0  0.88512  0.03122  0.98835  1.0000
  S   S1        1.0  0.90822  0.01326  0.04130  1.0000
  C   C2        1.0  0.94541  0.96992  0.02153  1.0000
  C   C3        1.0  0.98397  0.98942  0.99553  1.0000
  O   O1        1.0  0.98747  0.98268  0.95511  1.0000
  C   C4        1.0  0.01800  0.01638  0.02095  1.0000
  C   C5        1.0  0.01466  0.06326  0.00821  1.0000
  N   N1        1.0  0.01114  0.10075  0.99932  1.0000
  C   C6        1.0  0.06320  0.99897  0.01354  1.0000
  N   N2        1.0  0.09989  0.01223  0.99566  1.0000
  C   C7        1.0  0.11693  0.97209  0.00746  1.0000
  C   C8        1.0  0.15744  0.94749  0.00471  1.0000
  N   N3        1.0  0.19055  0.92745  0.00262  1.0000
  N   N4        1.0  0.08057  0.95887  0.02609  1.0000
  H   H1        1.0  0.91098  0.04589  0.96731  1.0000
  H   H2        1.0  0.86959  0.00314  0.97110  1.0000
  H   H3        1.0  0.85964  0.05652  0.99452  1.0000
  H   H4        1.0  0.92707  0.94633  0.00059  1.0000
  H   H5        1.0  0.95871  0.95123  0.04989  1.0000
  H   H6        1.0  0.01142  0.01290  0.05672  1.0000
