data_image0
_chemical_formula_structural       CSC3OC2NC2NC4H20
_chemical_formula_sum              "C12 S1 O1 N2 H20"
_cell_length_a       30
_cell_length_b       30
_cell_length_c       30
_cell_angle_alpha    90
_cell_angle_beta     90
_cell_angle_gamma    90

_space_group_name_H-M_alt    "P 1"
_space_group_IT_number       1

loop_
  _space_group_symop_operation_xyz
  'x, y, z'

loop_
  _atom_site_type_symbol
  _atom_site_label
  _atom_site_symmetry_multiplicity
  _atom_site_fract_x
  _atom_site_fract_y
  _atom_site_fract_z
  _atom_site_occupancy
  C   C1        1.0  0.14515  0.05051  0.94169  1.0000
  S   S1        1.0  0.09438  0.01794  0.94145  1.0000
  C   C2        1.0  0.09411  0.00078  0.99959  1.0000
  C   C3        1.0  0.05713  0.96740  0.01121  1.0000
  C   C4        1.0  0.00903  0.98526  0.01926  1.0000
  O   O1        1.0  0.01220  0.01839  0.05384  1.0000
  C   C5        1.0  0.98884  0.00694  0.97668  1.0000
  C   C6        1.0  0.93911  0.01359  0.97709  1.0000
  N   N1        1.0  0.91062  0.98889  0.95430  1.0000
  C   C7        1.0  0.86918  0.00554  0.96338  1.0000
  C   C8        1.0  0.87209  0.04128  0.99175  1.0000
  N   N2        1.0  0.91669  0.04641  0.00002  1.0000
  C   C9        1.0  0.93522  0.08076  0.02802  1.0000
  C   C10       1.0  0.97826  0.94914  0.03775  1.0000
  C   C11       1.0  0.99276  0.90400  0.05518  1.0000
  C   C12       1.0  0.96848  0.90721  0.01153  1.0000
  H   H1        1.0  0.17363  0.02956  0.95051  1.0000
  H   H2        1.0  0.14239  0.07810  0.96533  1.0000
  H   H3        1.0  0.15074  0.06426  0.90841  1.0000
  H   H4        1.0  0.09264  0.03030  0.02092  1.0000
  H   H5        1.0  0.12622  0.98452  0.00591  1.0000
  H   H6        1.0  0.05678  0.94028  0.98667  1.0000
  H   H7        1.0  0.06832  0.95250  0.04274  1.0000
  H   H8        1.0  0.02756  0.04413  0.04168  1.0000
  H   H9        1.0  0.99612  0.98547  0.94794  1.0000
  H   H10       1.0  0.00430  0.03938  0.97022  1.0000
  H   H11       1.0  0.83951  0.99095  0.94898  1.0000
  H   H12       1.0  0.84699  0.06273  0.00614  1.0000
  H   H13       1.0  0.91234  0.10913  0.02883  1.0000
  H   H14       1.0  0.93924  0.06726  0.06158  1.0000
  H   H15       1.0  0.96712  0.09178  0.01439  1.0000
  H   H16       1.0  0.94994  0.96408  0.05482  1.0000
  H   H17       1.0  0.02730  0.89372  0.05419  1.0000
  H   H18       1.0  0.97472  0.89058  0.08352  1.0000
  H   H19       1.0  0.93400  0.89640  0.01003  1.0000
  H   H20       1.0  0.98686  0.90084  0.98110  1.0000
