data_image0
_chemical_formula_structural       CSC4NCNC2NCOC2SC6H25
_chemical_formula_sum              "C17 S2 N3 O1 H25"
_cell_length_a       30
_cell_length_b       30
_cell_length_c       30
_cell_angle_alpha    90
_cell_angle_beta     90
_cell_angle_gamma    90

_space_group_name_H-M_alt    "P 1"
_space_group_IT_number       1

loop_
  _space_group_symop_operation_xyz
  'x, y, z'

loop_
  _atom_site_type_symbol
  _atom_site_label
  _atom_site_symmetry_multiplicity
  _atom_site_fract_x
  _atom_site_fract_y
  _atom_site_fract_z
  _atom_site_occupancy
  C   C1        1.0  0.09531  0.09812  0.98329  1.0000
  S   S1        1.0  0.15266  0.07917  0.98131  1.0000
  C   C2        1.0  0.14803  0.02986  0.01634  1.0000
  C   C3        1.0  0.12051  0.99341  0.99568  1.0000
  C   C4        1.0  0.13688  0.96784  0.96052  1.0000
  C   C5        1.0  0.10959  0.93529  0.94255  1.0000
  N   N1        1.0  0.06775  0.92668  0.95684  1.0000
  C   C6        1.0  0.05165  0.95134  0.99082  1.0000
  N   N2        1.0  0.00718  0.94513  0.00615  1.0000
  C   C7        1.0  0.97988  0.98158  0.98682  1.0000
  C   C8        1.0  0.95633  0.00763  0.02420  1.0000
  N   N3        1.0  0.92908  0.04412  0.00669  1.0000
  C   C9        1.0  0.94908  0.08493  0.99977  1.0000
  O   O1        1.0  0.98830  0.09281  0.00863  1.0000
  C   C10       1.0  0.92188  0.12101  0.97994  1.0000
  C   C11       1.0  0.88332  0.11469  0.95861  1.0000
  S   S2        1.0  0.85890  0.06307  0.95293  1.0000
  C   C12       1.0  0.88134  0.03635  0.00237  1.0000
  C   C13       1.0  0.85582  0.05065  0.04406  1.0000
  C   C14       1.0  0.99051  0.89896  0.99899  1.0000
  C   C15       1.0  0.01857  0.86519  0.02557  1.0000
  C   C16       1.0  0.94222  0.89416  0.01549  1.0000
  C   C17       1.0  0.07731  0.98467  0.01089  1.0000
  H   H1        1.0  0.07353  0.07513  0.96530  1.0000
  H   H2        1.0  0.08417  0.10150  0.01781  1.0000
  H   H3        1.0  0.09308  0.13076  0.96723  1.0000
  H   H4        1.0  0.18173  0.01718  0.02253  1.0000
  H   H5        1.0  0.13474  0.03956  0.04896  1.0000
  H   H6        1.0  0.17002  0.97327  0.94709  1.0000
  H   H7        1.0  0.12094  0.91465  0.91506  1.0000
  H   H8        1.0  0.99965  0.00521  0.96693  1.0000
  H   H9        1.0  0.95526  0.96838  0.96322  1.0000
  H   H10       1.0  0.98136  0.02140  0.04701  1.0000
  H   H11       1.0  0.93526  0.98568  0.04438  1.0000
  H   H12       1.0  0.93679  0.15390  0.98166  1.0000
  H   H13       1.0  0.86653  0.14289  0.94333  1.0000
  H   H14       1.0  0.87623  0.00053  0.99731  1.0000
  H   H15       1.0  0.86820  0.03257  0.07329  1.0000
  H   H16       1.0  0.82018  0.04333  0.04098  1.0000
  H   H17       1.0  0.85967  0.08624  0.05126  1.0000
  H   H18       1.0  0.99114  0.89029  0.96344  1.0000
  H   H19       1.0  0.00470  0.83155  0.02248  1.0000
  H   H20       1.0  0.05308  0.86349  0.01394  1.0000
  H   H21       1.0  0.01939  0.87387  0.06105  1.0000
  H   H22       1.0  0.91900  0.91456  0.99615  1.0000
  H   H23       1.0  0.93089  0.85957  0.01245  1.0000
  H   H24       1.0  0.93917  0.90394  0.05055  1.0000
  H   H25       1.0  0.06321  0.00391  0.03811  1.0000
