data_image0
_chemical_formula_structural       FCFCFOC2F2CFC6H10
_chemical_formula_sum              "F6 C11 O1 H10"
_cell_length_a       30
_cell_length_b       30
_cell_length_c       30
_cell_angle_alpha    90
_cell_angle_beta     90
_cell_angle_gamma    90

_space_group_name_H-M_alt    "P 1"
_space_group_IT_number       1

loop_
  _space_group_symop_operation_xyz
  'x, y, z'

loop_
  _atom_site_type_symbol
  _atom_site_label
  _atom_site_symmetry_multiplicity
  _atom_site_fract_x
  _atom_site_fract_y
  _atom_site_fract_z
  _atom_site_occupancy
  F   F1        1.0  0.15317  0.03698  0.03131  1.0000
  C   C1        1.0  0.15704  0.02453  0.98789  1.0000
  F   F2        1.0  0.14842  0.06133  0.96304  1.0000
  C   C2        1.0  0.12421  0.98687  0.97735  1.0000
  F   F3        1.0  0.13535  0.96845  0.93731  1.0000
  O   O1        1.0  0.07856  0.99985  0.97303  1.0000
  C   C3        1.0  0.06004  0.01759  0.01324  1.0000
  C   C4        1.0  0.00942  0.02310  0.00980  1.0000
  F   F4        1.0  0.99391  0.03545  0.05069  1.0000
  F   F5        1.0  0.00037  0.05772  0.98182  1.0000
  C   C5        1.0  0.98628  0.98041  0.99372  1.0000
  F   F6        1.0  0.00040  0.94563  0.01993  1.0000
  C   C6        1.0  0.93585  0.98416  0.99328  1.0000
  C   C7        1.0  0.91410  0.01001  0.96091  1.0000
  C   C8        1.0  0.86769  0.01333  0.96058  1.0000
  C   C9        1.0  0.84252  0.99086  0.99250  1.0000
  C   C10       1.0  0.86370  0.96506  0.02479  1.0000
  C   C11       1.0  0.91011  0.96170  0.02519  1.0000
  H   H1        1.0  0.19148  0.01425  0.98184  1.0000
  H   H2        1.0  0.12679  0.96040  0.00236  1.0000
  H   H3        1.0  0.07478  0.05034  0.01977  1.0000
  H   H4        1.0  0.06798  0.99559  0.04132  1.0000
  H   H5        1.0  0.99690  0.97242  0.95968  1.0000
  H   H6        1.0  0.93316  0.02793  0.93576  1.0000
  H   H7        1.0  0.85117  0.03353  0.93545  1.0000
  H   H8        1.0  0.80639  0.99350  0.99225  1.0000
  H   H9        1.0  0.84409  0.94755  0.04972  1.0000
  H   H10       1.0  0.92613  0.94142  0.05066  1.0000
