data_image0
_chemical_formula_structural       FC4NC5SCBrC2ClH14
_chemical_formula_sum              "F1 C12 N1 S1 Br1 Cl1 H14"
_cell_length_a       30
_cell_length_b       30
_cell_length_c       30
_cell_angle_alpha    90
_cell_angle_beta     90
_cell_angle_gamma    90

_space_group_name_H-M_alt    "P 1"
_space_group_IT_number       1

loop_
  _space_group_symop_operation_xyz
  'x, y, z'

loop_
  _atom_site_type_symbol
  _atom_site_label
  _atom_site_symmetry_multiplicity
  _atom_site_fract_x
  _atom_site_fract_y
  _atom_site_fract_z
  _atom_site_occupancy
  F   F1        1.0  0.16751  0.04813  0.05957  1.0000
  C   C1        1.0  0.14610  0.02357  0.02901  1.0000
  C   C2        1.0  0.10012  0.02841  0.02476  1.0000
  C   C3        1.0  0.07645  0.00463  0.99196  1.0000
  C   C4        1.0  0.02644  0.01104  0.98930  1.0000
  N   N1        1.0  0.00380  0.97795  0.01701  1.0000
  C   C5        1.0  0.95531  0.98291  0.01990  1.0000
  C   C6        1.0  0.93179  0.98265  0.97447  1.0000
  C   C7        1.0  0.88108  0.97906  0.97836  1.0000
  C   C8        1.0  0.86024  0.00941  0.01371  1.0000
  C   C9        1.0  0.88943  0.04910  0.02628  1.0000
  S   S1        1.0  0.94050  0.03137  0.05407  1.0000
  C   C10       1.0  0.10027  0.97510  0.96439  1.0000
  Br  Br1       1.0  0.07189  0.94071  0.91918  1.0000
  C   C11       1.0  0.14640  0.96975  0.96932  1.0000
  C   C12       1.0  0.16925  0.99420  0.00163  1.0000
  Cl  Cl1       1.0  0.22606  0.98797  0.00690  1.0000
  H   H1        1.0  0.08277  0.05081  0.04751  1.0000
  H   H2        1.0  0.01872  0.04517  0.00010  1.0000
  H   H3        1.0  0.01572  0.00930  0.95445  1.0000
  H   H4        1.0  0.01077  0.94707  0.00471  1.0000
  H   H5        1.0  0.94331  0.95407  0.03904  1.0000
  H   H6        1.0  0.94369  0.95489  0.95394  1.0000
  H   H7        1.0  0.93984  0.01308  0.95577  1.0000
  H   H8        1.0  0.86654  0.98683  0.94569  1.0000
  H   H9        1.0  0.87169  0.94441  0.98547  1.0000
  H   H10       1.0  0.82827  0.02167  0.00053  1.0000
  H   H11       1.0  0.85195  0.98993  0.04369  1.0000
  H   H12       1.0  0.89816  0.06886  0.99667  1.0000
  H   H13       1.0  0.87141  0.07127  0.04905  1.0000
  H   H14       1.0  0.16453  0.94668  0.94810  1.0000
