data_image0
_chemical_formula_structural       FC6OC5ClNCH9
_chemical_formula_sum              "F1 C12 O1 Cl1 N1 H9"
_cell_length_a       30
_cell_length_b       30
_cell_length_c       30
_cell_angle_alpha    90
_cell_angle_beta     90
_cell_angle_gamma    90

_space_group_name_H-M_alt    "P 1"
_space_group_IT_number       1

loop_
  _space_group_symop_operation_xyz
  'x, y, z'

loop_
  _atom_site_type_symbol
  _atom_site_label
  _atom_site_symmetry_multiplicity
  _atom_site_fract_x
  _atom_site_fract_y
  _atom_site_fract_z
  _atom_site_occupancy
  F   F1        1.0  0.93842  0.96163  0.07829  1.0000
  C   C1        1.0  0.91888  0.97425  0.04008  1.0000
  C   C2        1.0  0.87286  0.96956  0.03615  1.0000
  C   C3        1.0  0.85181  0.98234  0.99682  1.0000
  C   C4        1.0  0.87699  0.99971  0.96180  1.0000
  C   C5        1.0  0.92326  0.00436  0.96594  1.0000
  C   C6        1.0  0.94464  0.99158  0.00528  1.0000
  O   O1        1.0  0.98942  0.99447  0.01344  1.0000
  C   C7        1.0  0.01716  0.01020  0.97823  1.0000
  C   C8        1.0  0.06513  0.00890  0.99296  1.0000
  C   C9        1.0  0.09470  0.04338  0.98241  1.0000
  C   C10       1.0  0.13917  0.04036  0.99542  1.0000
  C   C11       1.0  0.15250  0.00256  0.01824  1.0000
  Cl  Cl1       1.0  0.20672  0.99617  0.03519  1.0000
  N   N1        1.0  0.12537  0.96835  0.02870  1.0000
  C   C12       1.0  0.08233  0.97235  0.01591  1.0000
  H   H1        1.0  0.85391  0.95596  0.06380  1.0000
  H   H2        1.0  0.81590  0.97879  0.99345  1.0000
  H   H3        1.0  0.86053  0.00973  0.93108  1.0000
  H   H4        1.0  0.94137  0.01811  0.93782  1.0000
  H   H5        1.0  0.01378  0.98898  0.94865  1.0000
  H   H6        1.0  0.00790  0.04460  0.97000  1.0000
  H   H7        1.0  0.08340  0.07264  0.96424  1.0000
  H   H8        1.0  0.16262  0.06676  0.98782  1.0000
  H   H9        1.0  0.06122  0.94426  0.02495  1.0000
