data_image0
_chemical_formula_structural       NC3N2CNC4SH10
_chemical_formula_sum              "N4 C8 S1 H10"
_cell_length_a       30
_cell_length_b       30
_cell_length_c       30
_cell_angle_alpha    90
_cell_angle_beta     90
_cell_angle_gamma    90

_space_group_name_H-M_alt    "P 1"
_space_group_IT_number       1

loop_
  _space_group_symop_operation_xyz
  'x, y, z'

loop_
  _atom_site_type_symbol
  _atom_site_label
  _atom_site_symmetry_multiplicity
  _atom_site_fract_x
  _atom_site_fract_y
  _atom_site_fract_z
  _atom_site_occupancy
  N   N1        1.0  0.83341  0.07193  0.02726  1.0000
  C   C1        1.0  0.84499  0.03955  0.00950  1.0000
  C   C2        1.0  0.85885  0.99899  0.98599  1.0000
  C   C3        1.0  0.90688  0.98967  0.99414  1.0000
  N   N2        1.0  0.92187  0.95908  0.02167  1.0000
  N   N3        1.0  0.96776  0.95725  0.02192  1.0000
  C   C4        1.0  0.98685  0.98644  0.99506  1.0000
  N   N4        1.0  0.03158  0.99074  0.98963  1.0000
  C   C5        1.0  0.05334  0.02901  0.96934  1.0000
  C   C6        1.0  0.10034  0.02844  0.98909  1.0000
  C   C7        1.0  0.10788  0.97960  0.00037  1.0000
  C   C8        1.0  0.06214  0.96482  0.01696  1.0000
  S   S1        1.0  0.94800  0.01793  0.96617  1.0000
  H   H1        1.0  0.83887  0.97068  0.99759  1.0000
  H   H2        1.0  0.85241  0.00231  0.95018  1.0000
  H   H3        1.0  0.03702  0.06074  0.97706  1.0000
  H   H4        1.0  0.05461  0.02475  0.93309  1.0000
  H   H5        1.0  0.10123  0.04849  0.01965  1.0000
  H   H6        1.0  0.12529  0.04173  0.96608  1.0000
  H   H7        1.0  0.13407  0.97463  0.02522  1.0000
  H   H8        1.0  0.11694  0.96109  0.97017  1.0000
  H   H9        1.0  0.05808  0.97327  0.05229  1.0000
  H   H10       1.0  0.05760  0.92886  0.01262  1.0000
