data_image0
_chemical_formula_structural       NC2NCOCSC13NC6H29
_chemical_formula_sum              "N3 C23 O1 S1 H29"
_cell_length_a       30
_cell_length_b       30
_cell_length_c       30
_cell_angle_alpha    90
_cell_angle_beta     90
_cell_angle_gamma    90

_space_group_name_H-M_alt    "P 1"
_space_group_IT_number       1

loop_
  _space_group_symop_operation_xyz
  'x, y, z'

loop_
  _atom_site_type_symbol
  _atom_site_label
  _atom_site_symmetry_multiplicity
  _atom_site_fract_x
  _atom_site_fract_y
  _atom_site_fract_z
  _atom_site_occupancy
  N   N1        1.0  0.05481  0.89810  0.01416  1.0000
  C   C1        1.0  0.07814  0.92620  0.00124  1.0000
  C   C2        1.0  0.10515  0.96373  0.98246  1.0000
  N   N2        1.0  0.07404  0.00013  0.97048  1.0000
  C   C3        1.0  0.04836  0.02215  0.00194  1.0000
  O   O1        1.0  0.05561  0.02049  0.04210  1.0000
  C   C4        1.0  0.01025  0.04910  0.98238  1.0000
  S   S1        1.0  0.97351  0.01269  0.95039  1.0000
  C   C5        1.0  0.94107  0.98997  0.99265  1.0000
  C   C6        1.0  0.89873  0.00040  0.00803  1.0000
  C   C7        1.0  0.87016  0.03747  0.98960  1.0000
  C   C8        1.0  0.82237  0.04163  0.00649  1.0000
  C   C9        1.0  0.80791  0.08674  0.98842  1.0000
  C   C10       1.0  0.84887  0.11618  0.99452  1.0000
  C   C11       1.0  0.88859  0.08440  0.99875  1.0000
  C   C12       1.0  0.88925  0.96809  0.04262  1.0000
  C   C13       1.0  0.85275  0.95870  0.07095  1.0000
  C   C14       1.0  0.85509  0.92368  0.10182  1.0000
  C   C15       1.0  0.89313  0.89748  0.10499  1.0000
  C   C16       1.0  0.92963  0.90539  0.07734  1.0000
  C   C17       1.0  0.92662  0.94053  0.04673  1.0000
  N   N3        1.0  0.95729  0.95440  0.01579  1.0000
  C   C18       1.0  0.12686  0.94628  0.93890  1.0000
  C   C19       1.0  0.15951  0.97794  0.91569  1.0000
  C   C20       1.0  0.20457  0.98027  0.93908  1.0000
  C   C21       1.0  0.20765  0.01405  0.97691  1.0000
  C   C22       1.0  0.16642  0.02023  0.00598  1.0000
  C   C23       1.0  0.14099  0.97746  0.01712  1.0000
  H   H1        1.0  0.05893  0.99717  0.94034  1.0000
  H   H2        1.0  0.02412  0.07459  0.96028  1.0000
  H   H3        1.0  0.99197  0.06587  0.00911  1.0000
  H   H4        1.0  0.86848  0.03272  0.95326  1.0000
  H   H5        1.0  0.82106  0.04303  0.04294  1.0000
  H   H6        1.0  0.80082  0.01459  0.99489  1.0000
  H   H7        1.0  0.77868  0.09996  0.00575  1.0000
  H   H8        1.0  0.79967  0.08402  0.95291  1.0000
  H   H9        1.0  0.84587  0.13645  0.02476  1.0000
  H   H10       1.0  0.85283  0.13905  0.96636  1.0000
  H   H11       1.0  0.90270  0.08673  0.03241  1.0000
  H   H12       1.0  0.91497  0.09360  0.97530  1.0000
  H   H13       1.0  0.82223  0.97793  0.06944  1.0000
  H   H14       1.0  0.82677  0.91699  0.12340  1.0000
  H   H15       1.0  0.89448  0.87044  0.12908  1.0000
  H   H16       1.0  0.95938  0.88486  0.07946  1.0000
  H   H17       1.0  0.98715  0.93950  0.01101  1.0000
  H   H18       1.0  0.10037  0.93822  0.91486  1.0000
  H   H19       1.0  0.14390  0.91450  0.94540  1.0000
  H   H20       1.0  0.16528  0.96461  0.88211  1.0000
  H   H21       1.0  0.14511  0.01118  0.91113  1.0000
  H   H22       1.0  0.21383  0.94716  0.95156  1.0000
  H   H23       1.0  0.23018  0.98893  0.91442  1.0000
  H   H24       1.0  0.21648  0.04670  0.96293  1.0000
  H   H25       1.0  0.23589  0.00459  0.99817  1.0000
  H   H26       1.0  0.17745  0.03557  0.03733  1.0000
  H   H27       1.0  0.14434  0.04487  0.99055  1.0000
  H   H28       1.0  0.12516  0.98234  0.04973  1.0000
  H   H29       1.0  0.16456  0.94994  0.02249  1.0000
