data_image0
_chemical_formula_structural       NC7SO2CF3H6
_chemical_formula_sum              "N1 C8 S1 O2 F3 H6"
_cell_length_a       30
_cell_length_b       30
_cell_length_c       30
_cell_angle_alpha    90
_cell_angle_beta     90
_cell_angle_gamma    90

_space_group_name_H-M_alt    "P 1"
_space_group_IT_number       1

loop_
  _space_group_symop_operation_xyz
  'x, y, z'

loop_
  _atom_site_type_symbol
  _atom_site_label
  _atom_site_symmetry_multiplicity
  _atom_site_fract_x
  _atom_site_fract_y
  _atom_site_fract_z
  _atom_site_occupancy
  N   N1        1.0  0.05057  0.10092  0.97244  1.0000
  C   C1        1.0  0.02294  0.07702  0.98556  1.0000
  C   C2        1.0  0.98967  0.04744  0.00171  1.0000
  C   C3        1.0  0.95026  0.06496  0.01936  1.0000
  C   C4        1.0  0.91709  0.03765  0.03540  1.0000
  C   C5        1.0  0.92414  0.99258  0.03341  1.0000
  C   C6        1.0  0.96272  0.97561  0.01612  1.0000
  C   C7        1.0  0.99459  0.00271  0.00070  1.0000
  S   S1        1.0  0.04303  0.98009  0.97952  1.0000
  O   O1        1.0  0.01745  0.98111  0.93199  1.0000
  O   O2        1.0  0.06813  0.99087  0.01690  1.0000
  C   C8        1.0  0.05137  0.92745  0.97580  1.0000
  F   F1        1.0  0.01344  0.90153  0.96812  1.0000
  F   F2        1.0  0.07848  0.91767  0.93869  1.0000
  F   F3        1.0  0.07235  0.90383  0.01047  1.0000
  H   H1        1.0  0.94727  0.10130  0.01972  1.0000
  H   H2        1.0  0.88780  0.05321  0.04845  1.0000
  H   H3        1.0  0.89885  0.97046  0.04567  1.0000
  H   H4        1.0  0.96700  0.93992  0.01514  1.0000
  H   H5        1.0  0.07164  0.01399  0.95236  1.0000
  H   H6        1.0  0.07122  0.01967  0.03248  1.0000
