data_image0
_chemical_formula_structural       NC9NCONC4ONC8H30
_chemical_formula_sum              "N4 C22 O2 H30"
_cell_length_a       30
_cell_length_b       30
_cell_length_c       30
_cell_angle_alpha    90
_cell_angle_beta     90
_cell_angle_gamma    90

_space_group_name_H-M_alt    "P 1"
_space_group_IT_number       1

loop_
  _space_group_symop_operation_xyz
  'x, y, z'

loop_
  _atom_site_type_symbol
  _atom_site_label
  _atom_site_symmetry_multiplicity
  _atom_site_fract_x
  _atom_site_fract_y
  _atom_site_fract_z
  _atom_site_occupancy
  N   N1        1.0  0.78302  0.91064  0.00470  1.0000
  C   C1        1.0  0.78033  0.94722  0.99240  1.0000
  C   C2        1.0  0.77554  0.99257  0.97778  1.0000
  C   C3        1.0  0.73275  0.00738  0.96601  1.0000
  C   C4        1.0  0.72587  0.05111  0.95184  1.0000
  C   C5        1.0  0.76170  0.08043  0.94936  1.0000
  C   C6        1.0  0.80438  0.06607  0.96095  1.0000
  C   C7        1.0  0.81199  0.02205  0.97522  1.0000
  C   C8        1.0  0.85906  0.00851  0.98758  1.0000
  C   C9        1.0  0.86675  0.00865  0.03814  1.0000
  N   N2        1.0  0.91366  0.00895  0.05051  1.0000
  C   C10       1.0  0.94025  0.97282  0.04144  1.0000
  O   O1        1.0  0.92612  0.94004  0.02146  1.0000
  N   N3        1.0  0.98398  0.97655  0.05602  1.0000
  C   C11       1.0  0.01126  0.93611  0.05628  1.0000
  C   C12       1.0  0.05823  0.94500  0.03920  1.0000
  C   C13       1.0  0.07966  0.98327  0.06525  1.0000
  C   C14       1.0  0.12709  0.99214  0.04970  1.0000
  O   O2        1.0  0.15904  0.98586  0.07451  1.0000
  N   N4        1.0  0.13130  0.00731  0.00656  1.0000
  C   C15       1.0  0.17486  0.01280  0.98562  1.0000
  C   C16       1.0  0.17288  0.04802  0.94860  1.0000
  C   C17       1.0  0.14806  0.03192  0.90710  1.0000
  C   C18       1.0  0.16641  0.98764  0.89014  1.0000
  C   C19       1.0  0.16697  0.95222  0.92664  1.0000
  C   C20       1.0  0.19241  0.96813  0.96782  1.0000
  C   C21       1.0  0.05051  0.02504  0.06256  1.0000
  C   C22       1.0  0.00316  0.01542  0.07853  1.0000
  H   H1        1.0  0.70441  0.98475  0.96782  1.0000
  H   H2        1.0  0.69259  0.06223  0.94271  1.0000
  H   H3        1.0  0.75648  0.11455  0.93826  1.0000
  H   H4        1.0  0.83195  0.08959  0.95859  1.0000
  H   H5        1.0  0.86652  0.97582  0.97307  1.0000
  H   H6        1.0  0.88271  0.03151  0.97168  1.0000
  H   H7        1.0  0.85092  0.97973  0.05390  1.0000
  H   H8        1.0  0.85223  0.03868  0.05311  1.0000
  H   H9        1.0  0.91964  0.02205  0.08084  1.0000
  H   H10       1.0  0.01240  0.92420  0.09081  1.0000
  H   H11       1.0  0.99603  0.90961  0.03639  1.0000
  H   H12       1.0  0.07848  0.91473  0.04226  1.0000
  H   H13       1.0  0.05662  0.95299  0.00355  1.0000
  H   H14       1.0  0.08203  0.97331  0.10044  1.0000
  H   H15       1.0  0.10435  0.00571  0.98637  1.0000
  H   H16       1.0  0.19786  0.02464  0.01147  1.0000
  H   H17       1.0  0.15715  0.07858  0.96104  1.0000
  H   H18       1.0  0.20706  0.05688  0.93900  1.0000
  H   H19       1.0  0.15074  0.05712  0.88078  1.0000
  H   H20       1.0  0.11248  0.02834  0.91454  1.0000
  H   H21       1.0  0.14625  0.97599  0.86198  1.0000
  H   H22       1.0  0.20039  0.99262  0.87757  1.0000
  H   H23       1.0  0.13265  0.94361  0.93586  1.0000
  H   H24       1.0  0.18241  0.92169  0.91382  1.0000
  H   H25       1.0  0.22775  0.97194  0.95911  1.0000
  H   H26       1.0  0.19071  0.94235  0.99370  1.0000
  H   H27       1.0  0.04902  0.03732  0.02814  1.0000
  H   H28       1.0  0.06509  0.05193  0.08257  1.0000
  H   H29       1.0  0.00284  0.00840  0.11440  1.0000
  H   H30       1.0  0.98296  0.04524  0.07293  1.0000
