data_image0
_chemical_formula_structural       NC4FCFC3NC3OC2NH13
_chemical_formula_sum              "N3 C13 F2 O1 H13"
_cell_length_a       30
_cell_length_b       30
_cell_length_c       30
_cell_angle_alpha    90
_cell_angle_beta     90
_cell_angle_gamma    90

_space_group_name_H-M_alt    "P 1"
_space_group_IT_number       1

loop_
  _space_group_symop_operation_xyz
  'x, y, z'

loop_
  _atom_site_type_symbol
  _atom_site_label
  _atom_site_symmetry_multiplicity
  _atom_site_fract_x
  _atom_site_fract_y
  _atom_site_fract_z
  _atom_site_occupancy
  N   N1        1.0  0.93608  0.11016  0.96839  1.0000
  C   C1        1.0  0.92395  0.07428  0.97632  1.0000
  C   C2        1.0  0.90780  0.03003  0.98506  1.0000
  C   C3        1.0  0.86386  0.02499  0.00021  1.0000
  C   C4        1.0  0.84718  0.98262  0.00887  1.0000
  F   F1        1.0  0.80513  0.97825  0.02328  1.0000
  C   C5        1.0  0.87366  0.94520  0.00267  1.0000
  F   F2        1.0  0.85742  0.90447  0.01114  1.0000
  C   C6        1.0  0.91729  0.94961  0.98761  1.0000
  C   C7        1.0  0.93493  0.99211  0.97844  1.0000
  C   C8        1.0  0.98304  0.99606  0.96297  1.0000
  N   N2        1.0  0.01212  0.01482  0.99774  1.0000
  C   C9        1.0  0.05658  0.02649  0.97975  1.0000
  C   C10       1.0  0.08828  0.99087  0.99701  1.0000
  C   C11       1.0  0.13474  0.00852  0.00691  1.0000
  O   O1        1.0  0.15595  0.02269  0.96696  1.0000
  C   C12       1.0  0.06499  0.97353  0.03723  1.0000
  C   C13       1.0  0.04089  0.00265  0.07061  1.0000
  N   N3        1.0  0.01715  0.98170  0.03359  1.0000
  H   H1        1.0  0.84242  0.05372  0.00546  1.0000
  H   H2        1.0  0.93751  0.91981  0.98367  1.0000
  H   H3        1.0  0.99545  0.96357  0.95144  1.0000
  H   H4        1.0  0.98311  0.01761  0.93337  1.0000
  H   H5        1.0  0.05765  0.02911  0.94332  1.0000
  H   H6        1.0  0.06547  0.05948  0.99282  1.0000
  H   H7        1.0  0.09040  0.96411  0.97211  1.0000
  H   H8        1.0  0.15549  0.98285  0.02254  1.0000
  H   H9        1.0  0.13359  0.03691  0.02984  1.0000
  H   H10       1.0  0.16358  0.99620  0.94986  1.0000
  H   H11       1.0  0.07499  0.94035  0.04717  1.0000
  H   H12       1.0  0.04543  0.03847  0.07042  1.0000
  H   H13       1.0  0.03385  0.98876  0.10321  1.0000
