data_image0
_chemical_formula_structural       NC3N2C4NCOC3NC4OC3ClC2NCOH21
_chemical_formula_sum              "N6 C21 O3 Cl1 H21"
_cell_length_a       30
_cell_length_b       30
_cell_length_c       30
_cell_angle_alpha    90
_cell_angle_beta     90
_cell_angle_gamma    90

_space_group_name_H-M_alt    "P 1"
_space_group_IT_number       1

loop_
  _space_group_symop_operation_xyz
  'x, y, z'

loop_
  _atom_site_type_symbol
  _atom_site_label
  _atom_site_symmetry_multiplicity
  _atom_site_fract_x
  _atom_site_fract_y
  _atom_site_fract_z
  _atom_site_occupancy
  N   N1        1.0  0.12364  0.02628  0.82683  1.0000
  C   C1        1.0  0.12133  0.02140  0.86518  1.0000
  C   C2        1.0  0.11681  0.01542  0.91185  1.0000
  C   C3        1.0  0.08040  0.02820  0.93513  1.0000
  N   N2        1.0  0.04463  0.04900  0.91485  1.0000
  N   N3        1.0  0.07694  0.02178  0.98042  1.0000
  C   C4        1.0  0.10990  0.00458  0.00212  1.0000
  C   C5        1.0  0.10846  0.99746  0.05264  1.0000
  C   C6        1.0  0.11396  0.94805  0.06458  1.0000
  C   C7        1.0  0.07432  0.92065  0.04826  1.0000
  N   N4        1.0  0.03198  0.94386  0.05307  1.0000
  C   C8        1.0  0.99478  0.92338  0.03431  1.0000
  O   O1        1.0  0.99625  0.88859  0.01276  1.0000
  C   C9        1.0  0.95121  0.94523  0.03895  1.0000
  C   C10       1.0  0.93990  0.97778  0.00727  1.0000
  C   C11       1.0  0.89865  0.99947  0.00895  1.0000
  N   N5        1.0  0.88659  0.03263  0.97732  1.0000
  C   C12       1.0  0.84306  0.05323  0.97633  1.0000
  C   C13       1.0  0.84093  0.07562  0.93115  1.0000
  C   C14       1.0  0.88892  0.08863  0.92228  1.0000
  C   C15       1.0  0.91508  0.05285  0.94618  1.0000
  O   O2        1.0  0.95459  0.04588  0.93918  1.0000
  C   C16       1.0  0.86907  0.98718  0.04315  1.0000
  C   C17       1.0  0.88036  0.95452  0.07465  1.0000
  C   C18       1.0  0.92159  0.93331  0.07260  1.0000
  Cl  Cl1       1.0  0.93429  0.89411  0.11263  1.0000
  C   C19       1.0  0.03048  0.98109  0.08436  1.0000
  C   C20       1.0  0.06612  0.01633  0.07467  1.0000
  N   N6        1.0  0.14844  0.99187  0.98162  1.0000
  C   C21       1.0  0.15409  0.99525  0.93670  1.0000
  O   O3        1.0  0.18853  0.98221  0.91893  1.0000
  H   H1        1.0  0.01632  0.04634  0.93401  1.0000
  H   H2        1.0  0.03800  0.03886  0.88324  1.0000
  H   H3        1.0  0.13724  0.01581  0.06593  1.0000
  H   H4        1.0  0.11652  0.94503  0.10097  1.0000
  H   H5        1.0  0.14483  0.93397  0.05108  1.0000
  H   H6        1.0  0.07862  0.91202  0.01299  1.0000
  H   H7        1.0  0.07237  0.88922  0.06681  1.0000
  H   H8        1.0  0.96418  0.98481  0.98134  1.0000
  H   H9        1.0  0.81633  0.02863  0.97959  1.0000
  H   H10       1.0  0.84108  0.07772  0.00336  1.0000
  H   H11       1.0  0.81804  0.10398  0.93041  1.0000
  H   H12       1.0  0.82990  0.05158  0.90588  1.0000
  H   H13       1.0  0.89649  0.08874  0.88665  1.0000
  H   H14       1.0  0.89708  0.12099  0.93701  1.0000
  H   H15       1.0  0.83661  0.00286  0.04658  1.0000
  H   H16       1.0  0.85664  0.94596  0.10070  1.0000
  H   H17       1.0  0.03583  0.96686  0.11763  1.0000
  H   H18       1.0  0.99774  0.99703  0.08526  1.0000
  H   H19       1.0  0.07514  0.03200  0.10649  1.0000
  H   H20       1.0  0.05150  0.04319  0.05470  1.0000
  H   H21       1.0  0.17422  0.97856  0.99868  1.0000
