data_image0
_chemical_formula_structural       NC2NC6SC4BrCNCH16
_chemical_formula_sum              "N3 C14 S1 Br1 H16"
_cell_length_a       30
_cell_length_b       30
_cell_length_c       30
_cell_angle_alpha    90
_cell_angle_beta     90
_cell_angle_gamma    90

_space_group_name_H-M_alt    "P 1"
_space_group_IT_number       1

loop_
  _space_group_symop_operation_xyz
  'x, y, z'

loop_
  _atom_site_type_symbol
  _atom_site_label
  _atom_site_symmetry_multiplicity
  _atom_site_fract_x
  _atom_site_fract_y
  _atom_site_fract_z
  _atom_site_occupancy
  N   N1        1.0  0.96225  0.97283  0.09267  1.0000
  C   C1        1.0  0.95576  0.98780  0.05754  1.0000
  C   C2        1.0  0.94686  0.00675  0.01249  1.0000
  N   N2        1.0  0.89915  0.01741  0.00589  1.0000
  C   C3        1.0  0.88168  0.05327  0.03431  1.0000
  C   C4        1.0  0.83196  0.05697  0.03994  1.0000
  C   C5        1.0  0.86053  0.04280  0.07848  1.0000
  C   C6        1.0  0.97763  0.04643  0.00264  1.0000
  C   C7        1.0  0.02274  0.02517  0.99237  1.0000
  C   C8        1.0  0.01182  0.98075  0.96937  1.0000
  S   S1        1.0  0.04332  0.93390  0.99257  1.0000
  C   C9        1.0  0.09844  0.94617  0.97397  1.0000
  C   C10       1.0  0.13351  0.92024  0.98981  1.0000
  C   C11       1.0  0.17678  0.92949  0.97547  1.0000
  C   C12       1.0  0.18357  0.96415  0.94558  1.0000
  Br  Br1       1.0  0.24130  0.97797  0.92503  1.0000
  C   C13       1.0  0.14685  0.98829  0.93135  1.0000
  N   N3        1.0  0.10453  0.98008  0.94492  1.0000
  C   C14       1.0  0.96137  0.97355  0.97606  1.0000
  H   H1        1.0  0.88096  0.98889  0.00990  1.0000
  H   H2        1.0  0.89896  0.08507  0.03137  1.0000
  H   H3        1.0  0.81754  0.09010  0.04089  1.0000
  H   H4        1.0  0.81077  0.03228  0.02433  1.0000
  H   H5        1.0  0.86539  0.06637  0.10548  1.0000
  H   H6        1.0  0.85837  0.00841  0.08938  1.0000
  H   H7        1.0  0.96615  0.06483  0.97315  1.0000
  H   H8        1.0  0.98012  0.07022  0.03024  1.0000
  H   H9        1.0  0.04266  0.04693  0.97085  1.0000
  H   H10       1.0  0.04143  0.02060  0.02345  1.0000
  H   H11       1.0  0.01854  0.98247  0.93350  1.0000
  H   H12       1.0  0.12757  0.89321  0.01315  1.0000
  H   H13       1.0  0.20449  0.90982  0.98802  1.0000
  H   H14       1.0  0.15016  0.01571  0.90793  1.0000
  H   H15       1.0  0.95193  0.93900  0.98346  1.0000
  H   H16       1.0  0.94490  0.98208  0.94441  1.0000
