data_image0
_chemical_formula_structural       NC7OC2NCOC4OH16
_chemical_formula_sum              "N2 C14 O3 H16"
_cell_length_a       30
_cell_length_b       30
_cell_length_c       30
_cell_angle_alpha    90
_cell_angle_beta     90
_cell_angle_gamma    90

_space_group_name_H-M_alt    "P 1"
_space_group_IT_number       1

loop_
  _space_group_symop_operation_xyz
  'x, y, z'

loop_
  _atom_site_type_symbol
  _atom_site_label
  _atom_site_symmetry_multiplicity
  _atom_site_fract_x
  _atom_site_fract_y
  _atom_site_fract_z
  _atom_site_occupancy
  N   N1        1.0  0.86907  0.03479  0.92283  1.0000
  C   C1        1.0  0.86900  0.00948  0.95232  1.0000
  C   C2        1.0  0.86819  0.97794  0.98835  1.0000
  C   C3        1.0  0.83260  0.94776  0.99099  1.0000
  C   C4        1.0  0.83072  0.91688  0.02572  1.0000
  C   C5        1.0  0.86465  0.91576  0.05756  1.0000
  C   C6        1.0  0.90040  0.94566  0.05497  1.0000
  C   C7        1.0  0.90236  0.97709  0.02044  1.0000
  O   O1        1.0  0.93617  0.00727  0.01505  1.0000
  C   C8        1.0  0.96634  0.01366  0.05165  1.0000
  C   C9        1.0  0.99612  0.05372  0.04048  1.0000
  N   N2        1.0  0.02722  0.04370  0.00438  1.0000
  C   C10       1.0  0.06585  0.01975  0.01283  1.0000
  O   O2        1.0  0.07747  0.01023  0.05098  1.0000
  C   C11       1.0  0.09223  0.00680  0.97061  1.0000
  C   C12       1.0  0.11275  0.04790  0.94861  1.0000
  C   C13       1.0  0.15916  0.03272  0.93627  1.0000
  C   C14       1.0  0.16912  0.99925  0.97252  1.0000
  O   O3        1.0  0.12797  0.97639  0.97964  1.0000
  H   H1        1.0  0.80612  0.94850  0.96609  1.0000
  H   H2        1.0  0.80322  0.89322  0.02762  1.0000
  H   H3        1.0  0.86355  0.89135  0.08433  1.0000
  H   H4        1.0  0.92641  0.94316  0.08035  1.0000
  H   H5        1.0  0.98667  0.98365  0.05629  1.0000
  H   H6        1.0  0.94755  0.02094  0.08228  1.0000
  H   H7        1.0  0.97598  0.08216  0.02945  1.0000
  H   H8        1.0  0.01518  0.06340  0.07010  1.0000
  H   H9        1.0  0.01498  0.04468  0.97290  1.0000
  H   H10       1.0  0.06935  0.98979  0.94778  1.0000
  H   H11       1.0  0.09354  0.05908  0.91958  1.0000
  H   H12       1.0  0.11456  0.07617  0.97183  1.0000
  H   H13       1.0  0.15831  0.01604  0.90376  1.0000
  H   H14       1.0  0.18328  0.05994  0.93471  1.0000
  H   H15       1.0  0.19512  0.97562  0.96296  1.0000
  H   H16       1.0  0.17880  0.01556  0.00372  1.0000
