data_image0
_chemical_formula_structural       NCOC2NC4SO2C8N2CH20
_chemical_formula_sum              "N4 C16 O3 S1 H20"
_cell_length_a       30
_cell_length_b       30
_cell_length_c       30
_cell_angle_alpha    90
_cell_angle_beta     90
_cell_angle_gamma    90

_space_group_name_H-M_alt    "P 1"
_space_group_IT_number       1

loop_
  _space_group_symop_operation_xyz
  'x, y, z'

loop_
  _atom_site_type_symbol
  _atom_site_label
  _atom_site_symmetry_multiplicity
  _atom_site_fract_x
  _atom_site_fract_y
  _atom_site_fract_z
  _atom_site_occupancy
  N   N1        1.0  0.17725  0.92557  0.96497  1.0000
  C   C1        1.0  0.14735  0.95690  0.95145  1.0000
  O   O1        1.0  0.12314  0.95082  0.91925  1.0000
  C   C2        1.0  0.14726  0.99771  0.97802  1.0000
  C   C3        1.0  0.11433  0.02094  0.99756  1.0000
  N   N2        1.0  0.06876  0.01063  0.00111  1.0000
  C   C4        1.0  0.04929  0.96910  0.98390  1.0000
  C   C5        1.0  0.00727  0.95607  0.00975  1.0000
  C   C6        1.0  0.97250  0.99361  0.01185  1.0000
  C   C7        1.0  0.95079  0.00047  0.96592  1.0000
  S   S1        1.0  0.90370  0.03672  0.96420  1.0000
  O   O2        1.0  0.91830  0.08137  0.97566  1.0000
  O   O3        1.0  0.88059  0.02876  0.92244  1.0000
  C   C8        1.0  0.86782  0.01759  0.00723  1.0000
  C   C9        1.0  0.84336  0.97847  0.00067  1.0000
  C   C10       1.0  0.81517  0.96330  0.03436  1.0000
  C   C11       1.0  0.81129  0.98728  0.07406  1.0000
  C   C12       1.0  0.83535  0.02666  0.08014  1.0000
  C   C13       1.0  0.86363  0.04208  0.04662  1.0000
  C   C14       1.0  0.99570  0.03480  0.03123  1.0000
  C   C15       1.0  0.03709  0.04822  0.00491  1.0000
  N   N3        1.0  0.13258  0.05957  0.01577  1.0000
  N   N4        1.0  0.17389  0.06255  0.00901  1.0000
  C   C16       1.0  0.18894  0.02330  0.98377  1.0000
  H   H1        1.0  0.19336  0.92707  0.99450  1.0000
  H   H2        1.0  0.17661  0.89596  0.94877  1.0000
  H   H3        1.0  0.04195  0.97265  0.94831  1.0000
  H   H4        1.0  0.07245  0.94126  0.98808  1.0000
  H   H5        1.0  0.99266  0.92599  0.99501  1.0000
  H   H6        1.0  0.01687  0.94715  0.04395  1.0000
  H   H7        1.0  0.94671  0.98307  0.03547  1.0000
  H   H8        1.0  0.93885  0.96836  0.95316  1.0000
  H   H9        1.0  0.97443  0.01355  0.94140  1.0000
  H   H10       1.0  0.84573  0.95999  0.96955  1.0000
  H   H11       1.0  0.79591  0.93295  0.02962  1.0000
  H   H12       1.0  0.78915  0.97545  0.10022  1.0000
  H   H13       1.0  0.83182  0.04547  0.11094  1.0000
  H   H14       1.0  0.88194  0.07301  0.05147  1.0000
  H   H15       1.0  0.97286  0.06306  0.03372  1.0000
  H   H16       1.0  0.00581  0.02726  0.06563  1.0000
  H   H17       1.0  0.05222  0.07663  0.02221  1.0000
  H   H18       1.0  0.02810  0.05987  0.97146  1.0000
  H   H19       1.0  0.21393  0.00510  0.00313  1.0000
  H   H20       1.0  0.20327  0.03366  0.95186  1.0000
