data_image0
_chemical_formula_structural       NCOC5SCN2CFC7NCH15
_chemical_formula_sum              "N4 C16 O1 S1 F1 H15"
_cell_length_a       30
_cell_length_b       30
_cell_length_c       30
_cell_angle_alpha    90
_cell_angle_beta     90
_cell_angle_gamma    90

_space_group_name_H-M_alt    "P 1"
_space_group_IT_number       1

loop_
  _space_group_symop_operation_xyz
  'x, y, z'

loop_
  _atom_site_type_symbol
  _atom_site_label
  _atom_site_symmetry_multiplicity
  _atom_site_fract_x
  _atom_site_fract_y
  _atom_site_fract_z
  _atom_site_occupancy
  N   N1        1.0  0.80939  0.92380  0.05364  1.0000
  C   C1        1.0  0.83689  0.93461  0.01927  1.0000
  O   O1        1.0  0.84499  0.90812  0.98935  1.0000
  C   C2        1.0  0.85847  0.97898  0.02159  1.0000
  C   C3        1.0  0.83759  0.01462  0.03920  1.0000
  C   C4        1.0  0.85962  0.05746  0.04035  1.0000
  C   C5        1.0  0.90120  0.06125  0.02427  1.0000
  C   C6        1.0  0.92745  0.10391  0.02410  1.0000
  S   S1        1.0  0.98158  0.09011  0.00010  1.0000
  C   C7        1.0  0.96712  0.03345  0.99095  1.0000
  N   N2        1.0  0.99321  0.00399  0.97278  1.0000
  N   N3        1.0  0.03510  0.01953  0.95991  1.0000
  C   C8        1.0  0.06154  0.98757  0.94770  1.0000
  F   F1        1.0  0.04772  0.94500  0.94858  1.0000
  C   C9        1.0  0.10830  0.99682  0.93248  1.0000
  C   C10       1.0  0.14179  0.99061  0.96941  1.0000
  C   C11       1.0  0.16706  0.95143  0.97240  1.0000
  C   C12       1.0  0.19766  0.94574  0.00699  1.0000
  C   C13       1.0  0.20316  0.97901  0.03895  1.0000
  C   C14       1.0  0.17800  0.01797  0.03644  1.0000
  C   C15       1.0  0.14739  0.02375  0.00189  1.0000
  N   N4        1.0  0.92439  0.02546  0.00607  1.0000
  C   C16       1.0  0.90446  0.98101  0.00103  1.0000
  H   H1        1.0  0.79741  0.89227  0.05410  1.0000
  H   H2        1.0  0.80768  0.94178  0.08203  1.0000
  H   H3        1.0  0.80391  0.01296  0.05227  1.0000
  H   H4        1.0  0.84188  0.08569  0.05439  1.0000
  H   H5        1.0  0.93226  0.11669  0.05790  1.0000
  H   H6        1.0  0.91135  0.12926  0.00342  1.0000
  H   H7        1.0  0.11570  0.97427  0.90470  1.0000
  H   H8        1.0  0.11045  0.03086  0.91937  1.0000
  H   H9        1.0  0.16307  0.92501  0.94789  1.0000
  H   H10       1.0  0.21716  0.91528  0.00906  1.0000
  H   H11       1.0  0.22695  0.97451  0.06590  1.0000
  H   H12       1.0  0.18208  0.04385  0.06146  1.0000
  H   H13       1.0  0.12773  0.05424  0.00056  1.0000
  H   H14       1.0  0.92595  0.95630  0.01731  1.0000
  H   H15       1.0  0.90234  0.97284  0.96546  1.0000
