data_image0
_chemical_formula_structural       NCOC2NCOCNCOC7OC15H31
_chemical_formula_sum              "N3 C28 O4 H31"
_cell_length_a       30
_cell_length_b       30
_cell_length_c       30
_cell_angle_alpha    90
_cell_angle_beta     90
_cell_angle_gamma    90

_space_group_name_H-M_alt    "P 1"
_space_group_IT_number       1

loop_
  _space_group_symop_operation_xyz
  'x, y, z'

loop_
  _atom_site_type_symbol
  _atom_site_label
  _atom_site_symmetry_multiplicity
  _atom_site_fract_x
  _atom_site_fract_y
  _atom_site_fract_z
  _atom_site_occupancy
  N   N1        1.0  0.97443  0.07929  0.89673  1.0000
  C   C1        1.0  0.96110  0.04257  0.92010  1.0000
  O   O1        1.0  0.95578  0.00723  0.90037  1.0000
  C   C2        1.0  0.95391  0.04992  0.97023  1.0000
  C   C3        1.0  0.99990  0.05606  0.99203  1.0000
  N   N2        1.0  0.02447  0.01445  0.99763  1.0000
  C   C4        1.0  0.07109  0.01678  0.99656  1.0000
  O   O2        1.0  0.09066  0.05193  0.98789  1.0000
  C   C5        1.0  0.09677  0.97349  0.00585  1.0000
  N   N3        1.0  0.14423  0.98151  0.00316  1.0000
  C   C6        1.0  0.16833  0.97893  0.96460  1.0000
  O   O3        1.0  0.15630  0.96761  0.92761  1.0000
  C   C7        1.0  0.21380  0.99233  0.97594  1.0000
  C   C8        1.0  0.25148  0.99534  0.94965  1.0000
  C   C9        1.0  0.29083  0.00931  0.97040  1.0000
  C   C10       1.0  0.29153  0.01983  0.01626  1.0000
  C   C11       1.0  0.25289  0.01654  0.04215  1.0000
  C   C12       1.0  0.21450  0.00260  0.02091  1.0000
  C   C13       1.0  0.16951  0.99562  0.03831  1.0000
  O   O4        1.0  0.15862  0.00121  0.07696  1.0000
  C   C14       1.0  0.00019  0.97786  0.01885  1.0000
  C   C15       1.0  0.95395  0.96945  0.99781  1.0000
  C   C16       1.0  0.93143  0.92864  0.01849  1.0000
  C   C17       1.0  0.91163  0.89690  0.99025  1.0000
  C   C18       1.0  0.89122  0.85882  0.00752  1.0000
  C   C19       1.0  0.89034  0.85171  0.05334  1.0000
  C   C20       1.0  0.90982  0.88269  0.08186  1.0000
  C   C21       1.0  0.93026  0.92082  0.06461  1.0000
  C   C22       1.0  0.92459  0.01348  0.99456  1.0000
  C   C23       1.0  0.88049  0.00291  0.96868  1.0000
  C   C24       1.0  0.85213  0.04280  0.95435  1.0000
  C   C25       1.0  0.81814  0.05883  0.98855  1.0000
  C   C26       1.0  0.83226  0.05850  0.03733  1.0000
  C   C27       1.0  0.88087  0.07052  0.04602  1.0000
  C   C28       1.0  0.91222  0.03029  0.04239  1.0000
  H   H1        1.0  0.98544  0.10759  0.91129  1.0000
  H   H2        1.0  0.98213  0.07443  0.86422  1.0000
  H   H3        1.0  0.93708  0.08225  0.97270  1.0000
  H   H4        1.0  0.99663  0.07109  0.02519  1.0000
  H   H5        1.0  0.01995  0.07962  0.97259  1.0000
  H   H6        1.0  0.08744  0.94859  0.98087  1.0000
  H   H7        1.0  0.08891  0.96183  0.03951  1.0000
  H   H8        1.0  0.25038  0.98722  0.91441  1.0000
  H   H9        1.0  0.32135  0.01217  0.95096  1.0000
  H   H10       1.0  0.32257  0.03069  0.03162  1.0000
  H   H11       1.0  0.25287  0.02463  0.07742  1.0000
  H   H12       1.0  0.99790  0.98624  0.05431  1.0000
  H   H13       1.0  0.01963  0.94708  0.01677  1.0000
  H   H14       1.0  0.96159  0.95940  0.96346  1.0000
  H   H15       1.0  0.91200  0.90168  0.95426  1.0000
  H   H16       1.0  0.87609  0.83472  0.98510  1.0000
  H   H17       1.0  0.87448  0.82206  0.06680  1.0000
  H   H18       1.0  0.90908  0.87718  0.11768  1.0000
  H   H19       1.0  0.94491  0.94428  0.08799  1.0000
  H   H20       1.0  0.88876  0.98423  0.93839  1.0000
  H   H21       1.0  0.85960  0.98015  0.98828  1.0000
  H   H22       1.0  0.87275  0.07090  0.94376  1.0000
  H   H23       1.0  0.83342  0.03321  0.92440  1.0000
  H   H24       1.0  0.80807  0.09280  0.97928  1.0000
  H   H25       1.0  0.78780  0.03856  0.98553  1.0000
  H   H26       1.0  0.81092  0.08225  0.05517  1.0000
  H   H27       1.0  0.82474  0.02582  0.05196  1.0000
  H   H28       1.0  0.89157  0.09855  0.02531  1.0000
  H   H29       1.0  0.88295  0.08234  0.08061  1.0000
  H   H30       1.0  0.94255  0.03855  0.06093  1.0000
  H   H31       1.0  0.89675  0.00315  0.06125  1.0000
