data_image0
_chemical_formula_structural       NCOCNOC3NC4OH11
_chemical_formula_sum              "N3 C9 O3 H11"
_cell_length_a       30
_cell_length_b       30
_cell_length_c       30
_cell_angle_alpha    90
_cell_angle_beta     90
_cell_angle_gamma    90

_space_group_name_H-M_alt    "P 1"
_space_group_IT_number       1

loop_
  _space_group_symop_operation_xyz
  'x, y, z'

loop_
  _atom_site_type_symbol
  _atom_site_label
  _atom_site_symmetry_multiplicity
  _atom_site_fract_x
  _atom_site_fract_y
  _atom_site_fract_z
  _atom_site_occupancy
  N   N1        1.0  0.09645  0.02165  0.09942  1.0000
  C   C1        1.0  0.07667  0.00985  0.06008  1.0000
  O   O1        1.0  0.08751  0.02767  0.02490  1.0000
  C   C2        1.0  0.04232  0.97537  0.06368  1.0000
  N   N2        1.0  0.03065  0.95850  0.10362  1.0000
  O   O2        1.0  0.99744  0.92776  0.09520  1.0000
  C   C3        1.0  0.98943  0.92603  0.05091  1.0000
  C   C4        1.0  0.01694  0.95532  0.02882  1.0000
  C   C5        1.0  0.01916  0.96327  0.98007  1.0000
  N   N3        1.0  0.98532  0.99507  0.96683  1.0000
  C   C6        1.0  0.99039  0.04244  0.97308  1.0000
  C   C7        1.0  0.95073  0.06143  0.94817  1.0000
  C   C8        1.0  0.91487  0.02582  0.95356  1.0000
  C   C9        1.0  0.94148  0.98336  0.95812  1.0000
  O   O3        1.0  0.92636  0.94566  0.95621  1.0000
  H   H1        1.0  0.08699  0.00675  0.12822  1.0000
  H   H2        1.0  0.12046  0.04519  0.09950  1.0000
  H   H3        1.0  0.96374  0.90304  0.04038  1.0000
  H   H4        1.0  0.05174  0.97548  0.96922  1.0000
  H   H5        1.0  0.01297  0.93188  0.96239  1.0000
  H   H6        1.0  0.02212  0.05396  0.95935  1.0000
  H   H7        1.0  0.98856  0.05002  0.00873  1.0000
  H   H8        1.0  0.94039  0.09406  0.96069  1.0000
  H   H9        1.0  0.95897  0.06509  0.91272  1.0000
  H   H10       1.0  0.89551  0.03090  0.98405  1.0000
  H   H11       1.0  0.89282  0.02440  0.92461  1.0000
