data_image0
_chemical_formula_structural       NCOC4OCF2OC7OCNC5NC6NH24
_chemical_formula_sum              "N4 C25 O4 F2 H24"
_cell_length_a       30
_cell_length_b       30
_cell_length_c       30
_cell_angle_alpha    90
_cell_angle_beta     90
_cell_angle_gamma    90

_space_group_name_H-M_alt    "P 1"
_space_group_IT_number       1

loop_
  _space_group_symop_operation_xyz
  'x, y, z'

loop_
  _atom_site_type_symbol
  _atom_site_label
  _atom_site_symmetry_multiplicity
  _atom_site_fract_x
  _atom_site_fract_y
  _atom_site_fract_z
  _atom_site_occupancy
  N   N1        1.0  0.11840  0.97140  0.12165  1.0000
  C   C1        1.0  0.08251  0.98568  0.09788  1.0000
  O   O1        1.0  0.05204  0.00556  0.11644  1.0000
  C   C2        1.0  0.08388  0.97603  0.04859  1.0000
  C   C3        1.0  0.04694  0.97035  0.02345  1.0000
  C   C4        1.0  0.00096  0.97171  0.03820  1.0000
  C   C5        1.0  0.96230  0.97147  0.01532  1.0000
  O   O2        1.0  0.92447  0.97377  0.04288  1.0000
  C   C6        1.0  0.88390  0.95282  0.02936  1.0000
  F   F1        1.0  0.86194  0.94079  0.06737  1.0000
  F   F2        1.0  0.89303  0.91373  0.00838  1.0000
  O   O3        1.0  0.85455  0.97823  0.00208  1.0000
  C   C7        1.0  0.83846  0.01475  0.02400  1.0000
  C   C8        1.0  0.79613  0.00913  0.04310  1.0000
  C   C9        1.0  0.77597  0.04339  0.06698  1.0000
  C   C10       1.0  0.79799  0.08374  0.07167  1.0000
  C   C11       1.0  0.83960  0.08973  0.05160  1.0000
  C   C12       1.0  0.86056  0.05580  0.02632  1.0000
  C   C13       1.0  0.90518  0.06804  0.00582  1.0000
  O   O4        1.0  0.93908  0.06712  0.03910  1.0000
  C   C14       1.0  0.92217  0.04951  0.96021  1.0000
  N   N2        1.0  0.91880  0.00186  0.94846  1.0000
  C   C15       1.0  0.92055  0.99638  0.89976  1.0000
  C   C16       1.0  0.96884  0.98606  0.88765  1.0000
  C   C17       1.0  0.99230  0.97886  0.93212  1.0000
  C   C18       1.0  0.95417  0.97159  0.96522  1.0000
  C   C19       1.0  0.12656  0.97245  0.02792  1.0000
  N   N3        1.0  0.16157  0.94813  0.03915  1.0000
  C   C20       1.0  0.19479  0.95989  0.00995  1.0000
  C   C21       1.0  0.23868  0.94427  0.00694  1.0000
  C   C22       1.0  0.26663  0.96257  0.97432  1.0000
  C   C23       1.0  0.25120  0.99568  0.94550  1.0000
  C   C24       1.0  0.20742  0.01158  0.94795  1.0000
  C   C25       1.0  0.18018  0.99252  0.98050  1.0000
  N   N4        1.0  0.13665  0.99981  0.99250  1.0000
  H   H1        1.0  0.14469  0.95624  0.10649  1.0000
  H   H2        1.0  0.12012  0.97846  0.15440  1.0000
  H   H3        1.0  0.05185  0.96202  0.98869  1.0000
  H   H4        1.0  0.99690  0.97274  0.07439  1.0000
  H   H5        1.0  0.77908  0.97729  0.03972  1.0000
  H   H6        1.0  0.74345  0.03835  0.08182  1.0000
  H   H7        1.0  0.78328  0.11037  0.09119  1.0000
  H   H8        1.0  0.85616  0.12178  0.05595  1.0000
  H   H9        1.0  0.90224  0.10382  0.99824  1.0000
  H   H10       1.0  0.93770  0.03805  0.05337  1.0000
  H   H11       1.0  0.90179  0.06777  0.93569  1.0000
  H   H12       1.0  0.95656  0.06112  0.95556  1.0000
  H   H13       1.0  0.89937  0.96835  0.89052  1.0000
  H   H14       1.0  0.90793  0.02493  0.88109  1.0000
  H   H15       1.0  0.97032  0.95583  0.86693  1.0000
  H   H16       1.0  0.98460  0.01360  0.86919  1.0000
  H   H17       1.0  0.01232  0.00832  0.94039  1.0000
  H   H18       1.0  0.01434  0.94986  0.92965  1.0000
  H   H19       1.0  0.94226  0.93757  0.95813  1.0000
  H   H20       1.0  0.25062  0.91889  0.02976  1.0000
  H   H21       1.0  0.30079  0.95084  0.97173  1.0000
  H   H22       1.0  0.27356  0.00941  0.92072  1.0000
  H   H23       1.0  0.19555  0.03733  0.92564  1.0000
  H   H24       1.0  0.11614  0.02265  0.97893  1.0000
