data_image0
_chemical_formula_structural       NCOC7NC2NCH11
_chemical_formula_sum              "N3 C11 O1 H11"
_cell_length_a       30
_cell_length_b       30
_cell_length_c       30
_cell_angle_alpha    90
_cell_angle_beta     90
_cell_angle_gamma    90

_space_group_name_H-M_alt    "P 1"
_space_group_IT_number       1

loop_
  _space_group_symop_operation_xyz
  'x, y, z'

loop_
  _atom_site_type_symbol
  _atom_site_label
  _atom_site_symmetry_multiplicity
  _atom_site_fract_x
  _atom_site_fract_y
  _atom_site_fract_z
  _atom_site_occupancy
  N   N1        1.0  0.93794  0.94373  0.96752  1.0000
  C   C1        1.0  0.96473  0.92754  0.00050  1.0000
  O   O1        1.0  0.97960  0.88948  0.99828  1.0000
  C   C2        1.0  0.97213  0.95733  0.04070  1.0000
  C   C3        1.0  0.97843  0.00656  0.03080  1.0000
  C   C4        1.0  0.94684  0.03546  0.05058  1.0000
  C   C5        1.0  0.94651  0.08108  0.04191  1.0000
  C   C6        1.0  0.97783  0.09912  0.01316  1.0000
  C   C7        1.0  0.00973  0.07159  0.99349  1.0000
  C   C8        1.0  0.01099  0.02536  0.00227  1.0000
  N   N2        1.0  0.04568  0.00039  0.98123  1.0000
  C   C9        1.0  0.06659  0.96225  0.99564  1.0000
  C   C10       1.0  0.09760  0.95154  0.96361  1.0000
  N   N3        1.0  0.09746  0.98224  0.93012  1.0000
  C   C11       1.0  0.06653  0.01107  0.94153  1.0000
  H   H1        1.0  0.93505  0.92473  0.93978  1.0000
  H   H2        1.0  0.93056  0.97653  0.96495  1.0000
  H   H3        1.0  0.94273  0.95234  0.06194  1.0000
  H   H4        1.0  0.00017  0.94509  0.06048  1.0000
  H   H5        1.0  0.92142  0.02230  0.07297  1.0000
  H   H6        1.0  0.92175  0.10241  0.05759  1.0000
  H   H7        1.0  0.97792  0.13473  0.00639  1.0000
  H   H8        1.0  0.03452  0.08773  0.97249  1.0000
  H   H9        1.0  0.05977  0.94630  0.02705  1.0000
  H   H10       1.0  0.12037  0.92355  0.96347  1.0000
  H   H11       1.0  0.05714  0.03957  0.92156  1.0000
