data_image0
_chemical_formula_structural       NCOC2OC5F3CNH9
_chemical_formula_sum              "N2 C9 O2 F3 H9"
_cell_length_a       30
_cell_length_b       30
_cell_length_c       30
_cell_angle_alpha    90
_cell_angle_beta     90
_cell_angle_gamma    90

_space_group_name_H-M_alt    "P 1"
_space_group_IT_number       1

loop_
  _space_group_symop_operation_xyz
  'x, y, z'

loop_
  _atom_site_type_symbol
  _atom_site_label
  _atom_site_symmetry_multiplicity
  _atom_site_fract_x
  _atom_site_fract_y
  _atom_site_fract_z
  _atom_site_occupancy
  N   N1        1.0  0.17574  0.02326  0.97921  1.0000
  C   C1        1.0  0.13129  0.03187  0.97460  1.0000
  O   O1        1.0  0.11835  0.06427  0.95346  1.0000
  C   C2        1.0  0.10141  0.99845  0.99725  1.0000
  C   C3        1.0  0.05239  0.00969  0.99082  1.0000
  O   O2        1.0  0.02696  0.97623  0.01352  1.0000
  C   C4        1.0  0.98152  0.98252  0.01023  1.0000
  C   C5        1.0  0.95493  0.95122  0.03133  1.0000
  C   C6        1.0  0.90883  0.95621  0.02893  1.0000
  C   C7        1.0  0.89074  0.99214  0.00539  1.0000
  C   C8        1.0  0.84158  0.00000  0.00206  1.0000
  F   F1        1.0  0.82891  0.01625  0.96162  1.0000
  F   F2        1.0  0.81698  0.96238  0.00851  1.0000
  F   F3        1.0  0.82675  0.02996  0.03273  1.0000
  C   C9        1.0  0.92030  0.02178  0.98566  1.0000
  N   N2        1.0  0.96517  0.01769  0.98751  1.0000
  H   H1        1.0  0.19733  0.04547  0.96586  1.0000
  H   H2        1.0  0.18775  0.99917  0.99943  1.0000
  H   H3        1.0  0.10937  0.99756  0.03292  1.0000
  H   H4        1.0  0.10840  0.96517  0.98387  1.0000
  H   H5        1.0  0.04535  0.04269  0.00496  1.0000
  H   H6        1.0  0.04431  0.00966  0.95513  1.0000
  H   H7        1.0  0.96982  0.92360  0.04926  1.0000
  H   H8        1.0  0.88725  0.93210  0.04533  1.0000
  H   H9        1.0  0.90857  0.05067  0.96711  1.0000
