data_image0
_chemical_formula_structural       NC2O2C3FC8H16
_chemical_formula_sum              "N1 C13 O2 F1 H16"
_cell_length_a       30
_cell_length_b       30
_cell_length_c       30
_cell_angle_alpha    90
_cell_angle_beta     90
_cell_angle_gamma    90

_space_group_name_H-M_alt    "P 1"
_space_group_IT_number       1

loop_
  _space_group_symop_operation_xyz
  'x, y, z'

loop_
  _atom_site_type_symbol
  _atom_site_label
  _atom_site_symmetry_multiplicity
  _atom_site_fract_x
  _atom_site_fract_y
  _atom_site_fract_z
  _atom_site_occupancy
  N   N1        1.0  0.92032  0.05021  0.03781  1.0000
  C   C1        1.0  0.93090  0.00798  0.01439  1.0000
  C   C2        1.0  0.90903  0.00895  0.96751  1.0000
  O   O1        1.0  0.88849  0.97915  0.94902  1.0000
  O   O2        1.0  0.91346  0.04907  0.94725  1.0000
  C   C3        1.0  0.91347  0.96800  0.04123  1.0000
  C   C4        1.0  0.94446  0.92903  0.02942  1.0000
  C   C5        1.0  0.98360  0.94922  0.00391  1.0000
  F   F1        1.0  0.97686  0.94229  0.95960  1.0000
  C   C6        1.0  0.98147  0.99918  0.01349  1.0000
  C   C7        1.0  0.00850  0.02773  0.98089  1.0000
  C   C8        1.0  0.05813  0.02095  0.98613  1.0000
  C   C9        1.0  0.08148  0.04259  0.02032  1.0000
  C   C10       1.0  0.12721  0.03586  0.02553  1.0000
  C   C11       1.0  0.14998  0.00739  0.99672  1.0000
  C   C12       1.0  0.12704  0.98563  0.96269  1.0000
  C   C13       1.0  0.08131  0.99234  0.95741  1.0000
  H   H1        1.0  0.88661  0.05226  0.04205  1.0000
  H   H2        1.0  0.92791  0.07585  0.01655  1.0000
  H   H3        1.0  0.89863  0.04460  0.91844  1.0000
  H   H4        1.0  0.91600  0.97430  0.07721  1.0000
  H   H5        1.0  0.87855  0.95991  0.03427  1.0000
  H   H6        1.0  0.95584  0.91285  0.06011  1.0000
  H   H7        1.0  0.92710  0.90414  0.00916  1.0000
  H   H8        1.0  0.01539  0.93390  0.01301  1.0000
  H   H9        1.0  0.99455  0.00445  0.04738  1.0000
  H   H10       1.0  0.99907  0.02074  0.94626  1.0000
  H   H11       1.0  0.00128  0.06319  0.98619  1.0000
  H   H12       1.0  0.06412  0.06486  0.04308  1.0000
  H   H13       1.0  0.14509  0.05283  0.05208  1.0000
  H   H14       1.0  0.18559  0.00217  0.00079  1.0000
  H   H15       1.0  0.14475  0.96339  0.94023  1.0000
  H   H16       1.0  0.06380  0.97497  0.93079  1.0000
