data_image0
_chemical_formula_structural       NC2NOC2NC8H17
_chemical_formula_sum              "N3 C12 O1 H17"
_cell_length_a       30
_cell_length_b       30
_cell_length_c       30
_cell_angle_alpha    90
_cell_angle_beta     90
_cell_angle_gamma    90

_space_group_name_H-M_alt    "P 1"
_space_group_IT_number       1

loop_
  _space_group_symop_operation_xyz
  'x, y, z'

loop_
  _atom_site_type_symbol
  _atom_site_label
  _atom_site_symmetry_multiplicity
  _atom_site_fract_x
  _atom_site_fract_y
  _atom_site_fract_z
  _atom_site_occupancy
  N   N1        1.0  0.03844  0.00084  0.94710  1.0000
  C   C1        1.0  0.04102  0.99243  0.99603  1.0000
  C   C2        1.0  0.04223  0.94142  0.00607  1.0000
  N   N2        1.0  0.08206  0.91887  0.98589  1.0000
  O   O1        1.0  0.07142  0.89032  0.95815  1.0000
  C   C3        1.0  0.08422  0.01496  0.01360  1.0000
  C   C4        1.0  0.08207  0.06585  0.01275  1.0000
  N   N3        1.0  0.04427  0.08229  0.03879  1.0000
  C   C5        1.0  0.00226  0.06531  0.02027  1.0000
  C   C6        1.0  0.00045  0.01383  0.02159  1.0000
  C   C7        1.0  0.95464  0.99616  0.00806  1.0000
  C   C8        1.0  0.93339  0.00955  0.96860  1.0000
  C   C9        1.0  0.89163  0.99254  0.95704  1.0000
  C   C10       1.0  0.87040  0.96202  0.98481  1.0000
  C   C11       1.0  0.89086  0.94854  0.02422  1.0000
  C   C12       1.0  0.93262  0.96550  0.03581  1.0000
  H   H1        1.0  0.06600  0.98751  0.93208  1.0000
  H   H2        1.0  0.01239  0.98297  0.93429  1.0000
  H   H3        1.0  0.01230  0.92463  0.99355  1.0000
  H   H4        1.0  0.04455  0.93520  0.04198  1.0000
  H   H5        1.0  0.09040  0.00411  0.04804  1.0000
  H   H6        1.0  0.11337  0.00430  0.99422  1.0000
  H   H7        1.0  0.11282  0.07918  0.02729  1.0000
  H   H8        1.0  0.08043  0.07835  0.97844  1.0000
  H   H9        1.0  0.04387  0.11628  0.03727  1.0000
  H   H10       1.0  0.97484  0.07889  0.04029  1.0000
  H   H11       1.0  0.99771  0.07824  0.98638  1.0000
  H   H12       1.0  0.00472  0.00500  0.05699  1.0000
  H   H13       1.0  0.94914  0.03336  0.94622  1.0000
  H   H14       1.0  0.87565  0.00323  0.92632  1.0000
  H   H15       1.0  0.83787  0.94886  0.97581  1.0000
  H   H16       1.0  0.87423  0.92486  0.04604  1.0000
  H   H17       1.0  0.94775  0.95459  0.06692  1.0000
