data_image0
_chemical_formula_structural       NC4NC2F3H5
_chemical_formula_sum              "N2 C6 F3 H5"
_cell_length_a       30
_cell_length_b       30
_cell_length_c       30
_cell_angle_alpha    90
_cell_angle_beta     90
_cell_angle_gamma    90

_space_group_name_H-M_alt    "P 1"
_space_group_IT_number       1

loop_
  _space_group_symop_operation_xyz
  'x, y, z'

loop_
  _atom_site_type_symbol
  _atom_site_label
  _atom_site_symmetry_multiplicity
  _atom_site_fract_x
  _atom_site_fract_y
  _atom_site_fract_z
  _atom_site_occupancy
  N   N1        1.0  0.02448  0.05767  0.97267  1.0000
  C   C1        1.0  0.99934  0.02351  0.99239  1.0000
  C   C2        1.0  0.95282  0.02729  0.99202  1.0000
  C   C3        1.0  0.92603  0.99273  0.00751  1.0000
  C   C4        1.0  0.94651  0.95418  0.02194  1.0000
  N   N2        1.0  0.99100  0.94811  0.02128  1.0000
  C   C5        1.0  0.01721  0.98235  0.00594  1.0000
  C   C6        1.0  0.06707  0.97389  0.00292  1.0000
  F   F1        1.0  0.08247  0.94356  0.03322  1.0000
  F   F2        1.0  0.09224  0.01137  0.01015  1.0000
  F   F3        1.0  0.08017  0.95829  0.96222  1.0000
  H   H1        1.0  0.00959  0.08811  0.97318  1.0000
  H   H2        1.0  0.05688  0.05956  0.98288  1.0000
  H   H3        1.0  0.93702  0.05742  0.97953  1.0000
  H   H4        1.0  0.89002  0.99578  0.00783  1.0000
  H   H5        1.0  0.92718  0.92617  0.03432  1.0000
