data_image0
_chemical_formula_structural       NC7OCONC6OH20
_chemical_formula_sum              "N2 C14 O3 H20"
_cell_length_a       30
_cell_length_b       30
_cell_length_c       30
_cell_angle_alpha    90
_cell_angle_beta     90
_cell_angle_gamma    90

_space_group_name_H-M_alt    "P 1"
_space_group_IT_number       1

loop_
  _space_group_symop_operation_xyz
  'x, y, z'

loop_
  _atom_site_type_symbol
  _atom_site_label
  _atom_site_symmetry_multiplicity
  _atom_site_fract_x
  _atom_site_fract_y
  _atom_site_fract_z
  _atom_site_occupancy
  N   N1        1.0  0.16088  0.93115  0.96711  1.0000
  C   C1        1.0  0.16044  0.97083  0.99198  1.0000
  C   C2        1.0  0.20011  0.99539  0.99521  1.0000
  C   C3        1.0  0.20120  0.03674  0.01643  1.0000
  C   C4        1.0  0.16219  0.05479  0.03359  1.0000
  C   C5        1.0  0.12207  0.03178  0.02885  1.0000
  C   C6        1.0  0.12041  0.99007  0.00738  1.0000
  C   C7        1.0  0.07643  0.96599  0.00091  1.0000
  O   O1        1.0  0.03939  0.99093  0.01793  1.0000
  C   C8        1.0  0.00002  0.96923  0.01439  1.0000
  O   O2        1.0  0.99485  0.93195  0.99885  1.0000
  N   N2        1.0  0.96700  0.99569  0.03084  1.0000
  C   C9        1.0  0.92045  0.98345  0.02901  1.0000
  C   C10       1.0  0.89940  0.99413  0.98357  1.0000
  C   C11       1.0  0.85215  0.97506  0.98012  1.0000
  C   C12       1.0  0.82238  0.00939  0.00284  1.0000
  C   C13       1.0  0.84676  0.05407  0.99937  1.0000
  C   C14       1.0  0.89156  0.04421  0.97712  1.0000
  O   O3        1.0  0.88890  0.05480  0.93085  1.0000
  H   H1        1.0  0.13652  0.90907  0.97497  1.0000
  H   H2        1.0  0.19126  0.91625  0.96590  1.0000
  H   H3        1.0  0.23081  0.98226  0.98113  1.0000
  H   H4        1.0  0.23241  0.05491  0.01912  1.0000
  H   H5        1.0  0.16275  0.08706  0.05004  1.0000
  H   H6        1.0  0.09183  0.04709  0.04172  1.0000
  H   H7        1.0  0.07125  0.96050  0.96514  1.0000
  H   H8        1.0  0.07820  0.93401  0.01856  1.0000
  H   H9        1.0  0.97638  0.02674  0.03997  1.0000
  H   H10       1.0  0.90368  0.00100  0.05626  1.0000
  H   H11       1.0  0.91796  0.94761  0.03568  1.0000
  H   H12       1.0  0.92005  0.98038  0.95671  1.0000
  H   H13       1.0  0.84253  0.97195  0.94499  1.0000
  H   H14       1.0  0.84885  0.94199  0.99518  1.0000
  H   H15       1.0  0.78938  0.01072  0.98733  1.0000
  H   H16       1.0  0.81751  0.00066  0.03799  1.0000
  H   H17       1.0  0.82702  0.07833  0.98055  1.0000
  H   H18       1.0  0.85192  0.06743  0.03298  1.0000
  H   H19       1.0  0.91823  0.06477  0.99110  1.0000
  H   H20       1.0  0.86490  0.03761  0.91751  1.0000
