data_image0
_chemical_formula_structural       NC4FCBrC2O2H5
_chemical_formula_sum              "N1 C7 F1 Br1 O2 H5"
_cell_length_a       30
_cell_length_b       30
_cell_length_c       30
_cell_angle_alpha    90
_cell_angle_beta     90
_cell_angle_gamma    90

_space_group_name_H-M_alt    "P 1"
_space_group_IT_number       1

loop_
  _space_group_symop_operation_xyz
  'x, y, z'

loop_
  _atom_site_type_symbol
  _atom_site_label
  _atom_site_symmetry_multiplicity
  _atom_site_fract_x
  _atom_site_fract_y
  _atom_site_fract_z
  _atom_site_occupancy
  N   N1        1.0  0.04706  0.96668  0.95219  1.0000
  C   C1        1.0  0.00867  0.98363  0.97328  1.0000
  C   C2        1.0  0.96723  0.96585  0.96099  1.0000
  C   C3        1.0  0.92840  0.97869  0.98302  1.0000
  C   C4        1.0  0.93082  0.00882  0.01812  1.0000
  F   F1        1.0  0.89267  0.02116  0.03792  1.0000
  C   C5        1.0  0.97167  0.02580  0.03251  1.0000
  Br  Br1       1.0  0.97095  0.06868  0.07921  1.0000
  C   C6        1.0  0.01080  0.01195  0.01095  1.0000
  C   C7        1.0  0.05510  0.02735  0.02556  1.0000
  O   O1        1.0  0.08375  0.04301  0.00144  1.0000
  O   O2        1.0  0.06250  0.01859  0.06885  1.0000
  H   H1        1.0  0.07388  0.98767  0.95444  1.0000
  H   H2        1.0  0.04213  0.95648  0.92028  1.0000
  H   H3        1.0  0.96497  0.94178  0.93396  1.0000
  H   H4        1.0  0.89625  0.96540  0.97302  1.0000
  H   H5        1.0  0.09315  0.02845  0.07426  1.0000
