data_image0
_chemical_formula_structural       NC2FC2OC5OCOCClCH9
_chemical_formula_sum              "N1 C12 F1 O3 Cl1 H9"
_cell_length_a       30
_cell_length_b       30
_cell_length_c       30
_cell_angle_alpha    90
_cell_angle_beta     90
_cell_angle_gamma    90

_space_group_name_H-M_alt    "P 1"
_space_group_IT_number       1

loop_
  _space_group_symop_operation_xyz
  'x, y, z'

loop_
  _atom_site_type_symbol
  _atom_site_label
  _atom_site_symmetry_multiplicity
  _atom_site_fract_x
  _atom_site_fract_y
  _atom_site_fract_z
  _atom_site_occupancy
  N   N1        1.0  0.81866  0.98995  0.02875  1.0000
  C   C1        1.0  0.86450  0.98977  0.01953  1.0000
  C   C2        1.0  0.88390  0.02337  0.99354  1.0000
  F   F1        1.0  0.85758  0.05338  0.97329  1.0000
  C   C3        1.0  0.92988  0.02635  0.98728  1.0000
  C   C4        1.0  0.95801  0.99590  0.00834  1.0000
  O   O1        1.0  0.00350  0.99561  0.00454  1.0000
  C   C5        1.0  0.02383  0.02875  0.97716  1.0000
  C   C6        1.0  0.07277  0.02106  0.97871  1.0000
  C   C7        1.0  0.10002  0.99166  0.00135  1.0000
  C   C8        1.0  0.14448  0.00146  0.98828  1.0000
  C   C9        1.0  0.18546  0.98040  0.00223  1.0000
  O   O2        1.0  0.22244  0.99152  0.98878  1.0000
  C   C10       1.0  0.14124  0.03629  0.95851  1.0000
  O   O3        1.0  0.09804  0.04837  0.95253  1.0000
  C   C11       1.0  0.93901  0.96307  0.03589  1.0000
  Cl  Cl1       1.0  0.97200  0.92485  0.06384  1.0000
  C   C12       1.0  0.89278  0.96046  0.04191  1.0000
  H   H1        1.0  0.80559  0.95976  0.03664  1.0000
  H   H2        1.0  0.80049  0.00652  0.00533  1.0000
  H   H3        1.0  0.94204  0.05295  0.96609  1.0000
  H   H4        1.0  0.01657  0.06214  0.99009  1.0000
  H   H5        1.0  0.01228  0.02556  0.94265  1.0000
  H   H6        1.0  0.08878  0.96630  0.02443  1.0000
  H   H7        1.0  0.18163  0.95294  0.02638  1.0000
  H   H8        1.0  0.16556  0.05514  0.93970  1.0000
  H   H9        1.0  0.87897  0.93550  0.06425  1.0000
