data_image0
_chemical_formula_structural       NCNC2F3CFCFCFH2
_chemical_formula_sum              "N2 C6 F6 H2"
_cell_length_a       30
_cell_length_b       30
_cell_length_c       30
_cell_angle_alpha    90
_cell_angle_beta     90
_cell_angle_gamma    90

_space_group_name_H-M_alt    "P 1"
_space_group_IT_number       1

loop_
  _space_group_symop_operation_xyz
  'x, y, z'

loop_
  _atom_site_type_symbol
  _atom_site_label
  _atom_site_symmetry_multiplicity
  _atom_site_fract_x
  _atom_site_fract_y
  _atom_site_fract_z
  _atom_site_occupancy
  N   N1        1.0  0.07673  0.94755  0.00775  1.0000
  C   C1        1.0  0.04238  0.97898  0.00393  1.0000
  N   N2        1.0  0.00034  0.96331  0.00165  1.0000
  C   C2        1.0  0.96593  0.99311  0.99790  1.0000
  C   C3        1.0  0.91827  0.97675  0.99525  1.0000
  F   F1        1.0  0.91410  0.93153  0.99696  1.0000
  F   F2        1.0  0.89242  0.99264  0.02914  1.0000
  F   F3        1.0  0.89754  0.98943  0.95681  1.0000
  C   C4        1.0  0.97329  0.03865  0.99640  1.0000
  F   F4        1.0  0.93928  0.06733  0.99273  1.0000
  C   C5        1.0  0.01664  0.05424  0.99877  1.0000
  F   F5        1.0  0.02471  0.09816  0.99740  1.0000
  C   C6        1.0  0.05163  0.02444  0.00257  1.0000
  F   F6        1.0  0.09382  0.03909  0.00490  1.0000
  H   H1        1.0  0.09455  0.95360  0.03597  1.0000
  H   H2        1.0  0.09838  0.95120  0.98188  1.0000
