data_image0
_chemical_formula_structural       NC2NCOC6BrC4FC2H14
_chemical_formula_sum              "N2 C15 O1 Br1 F1 H14"
_cell_length_a       30
_cell_length_b       30
_cell_length_c       30
_cell_angle_alpha    90
_cell_angle_beta     90
_cell_angle_gamma    90

_space_group_name_H-M_alt    "P 1"
_space_group_IT_number       1

loop_
  _space_group_symop_operation_xyz
  'x, y, z'

loop_
  _atom_site_type_symbol
  _atom_site_label
  _atom_site_symmetry_multiplicity
  _atom_site_fract_x
  _atom_site_fract_y
  _atom_site_fract_z
  _atom_site_occupancy
  N   N1        1.0  0.99637  0.06361  0.90416  1.0000
  C   C1        1.0  0.95788  0.04967  0.93122  1.0000
  C   C2        1.0  0.96690  0.00629  0.95816  1.0000
  N   N2        1.0  0.01034  0.00849  0.97982  1.0000
  C   C3        1.0  0.03127  0.97090  0.99562  1.0000
  O   O1        1.0  0.01440  0.93376  0.99722  1.0000
  C   C4        1.0  0.07672  0.97767  0.01343  1.0000
  C   C5        1.0  0.08360  0.96520  0.05797  1.0000
  C   C6        1.0  0.12531  0.97082  0.07772  1.0000
  C   C7        1.0  0.16039  0.98860  0.05299  1.0000
  C   C8        1.0  0.15390  0.00044  0.00843  1.0000
  C   C9        1.0  0.11212  0.99485  0.98841  1.0000
  Br  Br1       1.0  0.10722  0.00941  0.92705  1.0000
  C   C10       1.0  0.92959  0.99811  0.99152  1.0000
  C   C11       1.0  0.92415  0.02558  0.02914  1.0000
  C   C12       1.0  0.88950  0.01792  0.05923  1.0000
  C   C13       1.0  0.86028  0.98276  0.05191  1.0000
  F   F1        1.0  0.82703  0.97544  0.08081  1.0000
  C   C14       1.0  0.86506  0.95505  0.01513  1.0000
  C   C15       1.0  0.89967  0.96267  0.98496  1.0000
  H   H1        1.0  0.98714  0.08970  0.88440  1.0000
  H   H2        1.0  0.00497  0.03836  0.88301  1.0000
  H   H3        1.0  0.92879  0.04490  0.90962  1.0000
  H   H4        1.0  0.95009  0.07737  0.95374  1.0000
  H   H5        1.0  0.96859  0.97832  0.93459  1.0000
  H   H6        1.0  0.02907  0.03551  0.97190  1.0000
  H   H7        1.0  0.05626  0.95111  0.07724  1.0000
  H   H8        1.0  0.13043  0.96119  0.11229  1.0000
  H   H9        1.0  0.19298  0.99288  0.06830  1.0000
  H   H10       1.0  0.18185  0.01364  0.98948  1.0000
  H   H11       1.0  0.94721  0.05288  0.03530  1.0000
  H   H12       1.0  0.88529  0.03896  0.08834  1.0000
  H   H13       1.0  0.84208  0.92755  0.01030  1.0000
  H   H14       1.0  0.90355  0.94039  0.95661  1.0000
