data_image0
_chemical_formula_structural       NC8OC2H19
_chemical_formula_sum              "N1 C10 O1 H19"
_cell_length_a       30
_cell_length_b       30
_cell_length_c       30
_cell_angle_alpha    90
_cell_angle_beta     90
_cell_angle_gamma    90

_space_group_name_H-M_alt    "P 1"
_space_group_IT_number       1

loop_
  _space_group_symop_operation_xyz
  'x, y, z'

loop_
  _atom_site_type_symbol
  _atom_site_label
  _atom_site_symmetry_multiplicity
  _atom_site_fract_x
  _atom_site_fract_y
  _atom_site_fract_z
  _atom_site_occupancy
  N   N1        1.0  0.89422  0.06161  0.00428  1.0000
  C   C1        1.0  0.89899  0.02031  0.97934  1.0000
  C   C2        1.0  0.93910  0.99514  0.99719  1.0000
  C   C3        1.0  0.98381  0.01438  0.98175  1.0000
  C   C4        1.0  0.02279  0.01404  0.01508  1.0000
  C   C5        1.0  0.04657  0.96861  0.01824  1.0000
  C   C6        1.0  0.09503  0.97435  0.03218  1.0000
  C   C7        1.0  0.11982  0.00428  0.99931  1.0000
  C   C8        1.0  0.08841  0.03573  0.97471  1.0000
  O   O1        1.0  0.05336  0.04939  0.00357  1.0000
  C   C9        1.0  0.93543  0.94460  0.99860  1.0000
  C   C10       1.0  0.93331  0.97049  0.04122  1.0000
  H   H1        1.0  0.88959  0.05441  0.03711  1.0000
  H   H2        1.0  0.86624  0.07778  0.99395  1.0000
  H   H3        1.0  0.86839  0.00064  0.98276  1.0000
  H   H4        1.0  0.90340  0.02752  0.94382  1.0000
  H   H5        1.0  0.99366  0.99767  0.95071  1.0000
  H   H6        1.0  0.97848  0.04923  0.97185  1.0000
  H   H7        1.0  0.01036  0.02328  0.04815  1.0000
  H   H8        1.0  0.04582  0.95158  0.98586  1.0000
  H   H9        1.0  0.02940  0.94668  0.04178  1.0000
  H   H10       1.0  0.09620  0.98930  0.06553  1.0000
  H   H11       1.0  0.11169  0.94194  0.03460  1.0000
  H   H12       1.0  0.14470  0.02361  0.01786  1.0000
  H   H13       1.0  0.13834  0.98429  0.97498  1.0000
  H   H14       1.0  0.10657  0.06543  0.96376  1.0000
  H   H15       1.0  0.07446  0.02002  0.94481  1.0000
  H   H16       1.0  0.96484  0.92461  0.99225  1.0000
  H   H17       1.0  0.90501  0.92899  0.98680  1.0000
  H   H18       1.0  0.96072  0.96765  0.06446  1.0000
  H   H19       1.0  0.90129  0.97244  0.05799  1.0000
