data_image0
_chemical_formula_structural       N2COC4NCSC5FC2H12
_chemical_formula_sum              "N3 C13 O1 S1 F1 H12"
_cell_length_a       30
_cell_length_b       30
_cell_length_c       30
_cell_angle_alpha    90
_cell_angle_beta     90
_cell_angle_gamma    90

_space_group_name_H-M_alt    "P 1"
_space_group_IT_number       1

loop_
  _space_group_symop_operation_xyz
  'x, y, z'

loop_
  _atom_site_type_symbol
  _atom_site_label
  _atom_site_symmetry_multiplicity
  _atom_site_fract_x
  _atom_site_fract_y
  _atom_site_fract_z
  _atom_site_occupancy
  N   N1        1.0  0.10746  0.92908  0.07665  1.0000
  N   N2        1.0  0.08962  0.95264  0.04006  1.0000
  C   C1        1.0  0.11263  0.98884  0.02288  1.0000
  O   O1        1.0  0.14878  0.00083  0.03818  1.0000
  C   C2        1.0  0.09367  0.01224  0.98341  1.0000
  C   C3        1.0  0.12476  0.03351  0.95550  1.0000
  C   C4        1.0  0.11077  0.05606  0.91754  1.0000
  C   C5        1.0  0.06574  0.05685  0.90848  1.0000
  N   N3        1.0  0.03479  0.03720  0.93460  1.0000
  C   C6        1.0  0.04857  0.01536  0.97193  1.0000
  S   S1        1.0  0.00447  0.99203  0.00469  1.0000
  C   C7        1.0  0.95563  0.01593  0.97744  1.0000
  C   C8        1.0  0.91337  0.00212  0.00111  1.0000
  C   C9        1.0  0.89655  0.02773  0.03652  1.0000
  C   C10       1.0  0.85777  0.01468  0.05866  1.0000
  C   C11       1.0  0.83589  0.97601  0.04557  1.0000
  F   F1        1.0  0.79868  0.96352  0.06686  1.0000
  C   C12       1.0  0.85208  0.95004  0.01081  1.0000
  C   C13       1.0  0.89086  0.96300  0.98860  1.0000
  H   H1        1.0  0.10126  0.94761  0.10467  1.0000
  H   H2        1.0  0.14158  0.93068  0.07367  1.0000
  H   H3        1.0  0.05914  0.94358  0.02792  1.0000
  H   H4        1.0  0.16019  0.03234  0.96335  1.0000
  H   H5        1.0  0.13448  0.07246  0.89572  1.0000
  H   H6        1.0  0.05282  0.07386  0.87922  1.0000
  H   H7        1.0  0.95803  0.05239  0.97732  1.0000
  H   H8        1.0  0.95410  0.00489  0.94264  1.0000
  H   H9        1.0  0.91369  0.05790  0.04709  1.0000
  H   H10       1.0  0.84459  0.03431  0.08603  1.0000
  H   H11       1.0  0.83452  0.91988  0.00131  1.0000
  H   H12       1.0  0.90352  0.94240  0.96157  1.0000
