data_image0
_chemical_formula_structural       NSO2C7OC5NCONC6BrH20
_chemical_formula_sum              "N3 S1 O4 C19 Br1 H20"
_cell_length_a       30
_cell_length_b       30
_cell_length_c       30
_cell_angle_alpha    90
_cell_angle_beta     90
_cell_angle_gamma    90

_space_group_name_H-M_alt    "P 1"
_space_group_IT_number       1

loop_
  _space_group_symop_operation_xyz
  'x, y, z'

loop_
  _atom_site_type_symbol
  _atom_site_label
  _atom_site_symmetry_multiplicity
  _atom_site_fract_x
  _atom_site_fract_y
  _atom_site_fract_z
  _atom_site_occupancy
  N   N1        1.0  0.79284  0.97997  0.91753  1.0000
  S   S1        1.0  0.78533  0.00585  0.96660  1.0000
  O   O1        1.0  0.76621  0.97283  0.99597  1.0000
  O   O2        1.0  0.76322  0.04738  0.95646  1.0000
  C   C1        1.0  0.84079  0.01687  0.98311  1.0000
  C   C2        1.0  0.86189  0.05532  0.96834  1.0000
  C   C3        1.0  0.90548  0.06404  0.98212  1.0000
  C   C4        1.0  0.92953  0.03526  0.01085  1.0000
  C   C5        1.0  0.90656  0.99681  0.02643  1.0000
  C   C6        1.0  0.86263  0.98787  0.01212  1.0000
  C   C7        1.0  0.92835  0.96280  0.05679  1.0000
  O   O3        1.0  0.95155  0.98357  0.09273  1.0000
  C   C8        1.0  0.99621  0.96820  0.09766  1.0000
  C   C9        1.0  0.02893  0.00132  0.07721  1.0000
  C   C10       1.0  0.01599  0.01202  0.02926  1.0000
  C   C11       1.0  0.97912  0.04843  0.02570  1.0000
  C   C12       1.0  0.00986  0.07253  0.99230  1.0000
  N   N2        1.0  0.04615  0.04419  0.00828  1.0000
  C   C13       1.0  0.08535  0.03827  0.98483  1.0000
  O   O4        1.0  0.09819  0.06663  0.95827  1.0000
  N   N3        1.0  0.10678  0.99892  0.99429  1.0000
  C   C14       1.0  0.14723  0.98233  0.97677  1.0000
  C   C15       1.0  0.17350  0.00597  0.94642  1.0000
  C   C16       1.0  0.21335  0.98785  0.93027  1.0000
  C   C17       1.0  0.22746  0.94590  0.94424  1.0000
  C   C18       1.0  0.20173  0.92184  0.97448  1.0000
  C   C19       1.0  0.16193  0.93995  0.99060  1.0000
  Br  Br1       1.0  0.12827  0.90512  0.03166  1.0000
  H   H1        1.0  0.78073  0.94824  0.91932  1.0000
  H   H2        1.0  0.77901  0.99849  0.89257  1.0000
  H   H3        1.0  0.84491  0.07867  0.94641  1.0000
  H   H4        1.0  0.92123  0.09460  0.97036  1.0000
  H   H5        1.0  0.84545  0.95815  0.02394  1.0000
  H   H6        1.0  0.90306  0.94128  0.07201  1.0000
  H   H7        1.0  0.94979  0.94143  0.03631  1.0000
  H   H8        1.0  0.00296  0.96572  0.13346  1.0000
  H   H9        1.0  0.00069  0.93467  0.08380  1.0000
  H   H10       1.0  0.02941  0.03184  0.09736  1.0000
  H   H11       1.0  0.06245  0.98708  0.07918  1.0000
  H   H12       1.0  0.01137  0.98278  0.00780  1.0000
  H   H13       1.0  0.97660  0.06848  0.05643  1.0000
  H   H14       1.0  0.00249  0.06717  0.95696  1.0000
  H   H15       1.0  0.01514  0.10799  0.99885  1.0000
  H   H16       1.0  0.09153  0.97859  0.01623  1.0000
  H   H17       1.0  0.16404  0.03885  0.93461  1.0000
  H   H18       1.0  0.23334  0.00681  0.90669  1.0000
  H   H19       1.0  0.25845  0.93203  0.93158  1.0000
  H   H20       1.0  0.21293  0.88910  0.98523  1.0000
