data_image0
_chemical_formula_structural       OC2NC2NCNC7SC6H15
_chemical_formula_sum              "O1 C18 N3 S1 H15"
_cell_length_a       30
_cell_length_b       30
_cell_length_c       30
_cell_angle_alpha    90
_cell_angle_beta     90
_cell_angle_gamma    90

_space_group_name_H-M_alt    "P 1"
_space_group_IT_number       1

loop_
  _space_group_symop_operation_xyz
  'x, y, z'

loop_
  _atom_site_type_symbol
  _atom_site_label
  _atom_site_symmetry_multiplicity
  _atom_site_fract_x
  _atom_site_fract_y
  _atom_site_fract_z
  _atom_site_occupancy
  O   O1        1.0  0.94490  0.96215  0.05816  1.0000
  C   C1        1.0  0.94899  0.97357  0.01882  1.0000
  C   C2        1.0  0.90878  0.99338  0.99517  1.0000
  N   N1        1.0  0.90168  0.04022  0.00448  1.0000
  C   C3        1.0  0.89066  0.07205  0.97367  1.0000
  C   C4        1.0  0.88679  0.11091  0.99766  1.0000
  N   N2        1.0  0.89488  0.10335  0.04194  1.0000
  C   C5        1.0  0.90288  0.06040  0.04526  1.0000
  N   N3        1.0  0.98804  0.96735  0.99357  1.0000
  C   C6        1.0  0.00163  0.00204  0.96208  1.0000
  C   C7        1.0  0.03579  0.03295  0.98207  1.0000
  C   C8        1.0  0.02359  0.07426  0.00030  1.0000
  C   C9        1.0  0.05555  0.10194  0.01969  1.0000
  C   C10       1.0  0.09998  0.08869  0.02107  1.0000
  C   C11       1.0  0.11243  0.04766  0.00313  1.0000
  C   C12       1.0  0.08043  0.01964  0.98398  1.0000
  S   S1        1.0  0.09718  0.96813  0.96036  1.0000
  C   C13       1.0  0.06431  0.92849  0.99108  1.0000
  C   C14       1.0  0.08967  0.89027  0.00229  1.0000
  C   C15       1.0  0.07146  0.85472  0.02581  1.0000
  C   C16       1.0  0.02719  0.85648  0.03827  1.0000
  C   C17       1.0  0.00150  0.89380  0.02732  1.0000
  C   C18       1.0  0.01883  0.93111  0.00413  1.0000
  H   H1        1.0  0.91073  0.98828  0.95910  1.0000
  H   H2        1.0  0.87889  0.97571  0.00660  1.0000
  H   H3        1.0  0.88650  0.06492  0.93859  1.0000
  H   H4        1.0  0.87854  0.14385  0.98547  1.0000
  H   H5        1.0  0.90992  0.04272  0.07599  1.0000
  H   H6        1.0  0.97323  0.02229  0.95164  1.0000
  H   H7        1.0  0.01292  0.98647  0.93100  1.0000
  H   H8        1.0  0.98915  0.08550  0.99982  1.0000
  H   H9        1.0  0.04561  0.13380  0.03386  1.0000
  H   H10       1.0  0.12489  0.11022  0.03618  1.0000
  H   H11       1.0  0.14725  0.03766  0.00437  1.0000
  H   H12       1.0  0.12462  0.88795  0.99266  1.0000
  H   H13       1.0  0.09179  0.82592  0.03411  1.0000
  H   H14       1.0  0.01217  0.82893  0.05641  1.0000
  H   H15       1.0  0.96666  0.89222  0.03720  1.0000
