data_image0
_chemical_formula_structural       OCNC2ClC2ClC2FC7ON2C6FH11
_chemical_formula_sum              "O2 C20 N3 Cl2 F2 H11"
_cell_length_a       30
_cell_length_b       30
_cell_length_c       30
_cell_angle_alpha    90
_cell_angle_beta     90
_cell_angle_gamma    90

_space_group_name_H-M_alt    "P 1"
_space_group_IT_number       1

loop_
  _space_group_symop_operation_xyz
  'x, y, z'

loop_
  _atom_site_type_symbol
  _atom_site_label
  _atom_site_symmetry_multiplicity
  _atom_site_fract_x
  _atom_site_fract_y
  _atom_site_fract_z
  _atom_site_occupancy
  O   O1        1.0  0.03297  0.05448  0.03126  1.0000
  C   C1        1.0  0.03023  0.01728  0.01485  1.0000
  N   N1        1.0  0.06554  0.99236  0.99901  1.0000
  C   C2        1.0  0.11087  0.00502  0.99446  1.0000
  C   C3        1.0  0.14227  0.97078  0.98743  1.0000
  Cl  Cl1       1.0  0.12564  0.91546  0.98473  1.0000
  C   C4        1.0  0.18774  0.97990  0.98296  1.0000
  C   C5        1.0  0.20245  0.02379  0.98498  1.0000
  Cl  Cl2       1.0  0.25829  0.03540  0.97943  1.0000
  C   C6        1.0  0.17219  0.05832  0.99093  1.0000
  C   C7        1.0  0.12683  0.04889  0.99533  1.0000
  F   F1        1.0  0.09949  0.08402  0.99776  1.0000
  C   C8        1.0  0.98822  0.99372  0.01310  1.0000
  C   C9        1.0  0.97929  0.94966  0.02374  1.0000
  C   C10       1.0  0.93260  0.94629  0.02488  1.0000
  C   C11       1.0  0.90492  0.90383  0.03723  1.0000
  C   C12       1.0  0.92180  0.86248  0.04861  1.0000
  C   C13       1.0  0.88473  0.83443  0.05703  1.0000
  C   C14       1.0  0.84753  0.86026  0.05029  1.0000
  O   O2        1.0  0.85936  0.90221  0.03830  1.0000
  N   N2        1.0  0.91313  0.98492  0.01490  1.0000
  N   N3        1.0  0.94710  0.01298  0.00399  1.0000
  C   C15       1.0  0.93647  0.05488  0.98467  1.0000
  C   C16       1.0  0.89462  0.07406  0.99332  1.0000
  C   C17       1.0  0.88343  0.11538  0.97494  1.0000
  C   C18       1.0  0.91350  0.13752  0.94730  1.0000
  C   C19       1.0  0.95452  0.11802  0.93751  1.0000
  C   C20       1.0  0.96568  0.07678  0.95585  1.0000
  F   F2        1.0  0.00361  0.05765  0.94197  1.0000
  H   H1        1.0  0.05915  0.96008  0.99142  1.0000
  H   H2        1.0  0.21145  0.95296  0.97793  1.0000
  H   H3        1.0  0.18307  0.09284  0.99167  1.0000
  H   H4        1.0  0.00319  0.92429  0.03281  1.0000
  H   H5        1.0  0.95659  0.85343  0.05070  1.0000
  H   H6        1.0  0.88505  0.79976  0.06681  1.0000
  H   H7        1.0  0.81207  0.85418  0.05252  1.0000
  H   H8        1.0  0.87066  0.05743  0.01495  1.0000
  H   H9        1.0  0.85118  0.13022  0.98229  1.0000
  H   H10       1.0  0.90478  0.16965  0.93299  1.0000
  H   H11       1.0  0.97780  0.13438  0.91515  1.0000
