data_image0
_chemical_formula_structural       OC2SC5NCNCN2COC4SH18
_chemical_formula_sum              "O2 C14 S2 N4 H18"
_cell_length_a       30
_cell_length_b       30
_cell_length_c       30
_cell_angle_alpha    90
_cell_angle_beta     90
_cell_angle_gamma    90

_space_group_name_H-M_alt    "P 1"
_space_group_IT_number       1

loop_
  _space_group_symop_operation_xyz
  'x, y, z'

loop_
  _atom_site_type_symbol
  _atom_site_label
  _atom_site_symmetry_multiplicity
  _atom_site_fract_x
  _atom_site_fract_y
  _atom_site_fract_z
  _atom_site_occupancy
  O   O1        1.0  0.16547  0.92764  0.98298  1.0000
  C   C1        1.0  0.14256  0.96187  0.98259  1.0000
  C   C2        1.0  0.09458  0.95894  0.96627  1.0000
  S   S1        1.0  0.05653  0.95324  0.01342  1.0000
  C   C3        1.0  0.00340  0.94982  0.98272  1.0000
  C   C4        1.0  0.98915  0.99543  0.96408  1.0000
  C   C5        1.0  0.94929  0.01459  0.98950  1.0000
  C   C6        1.0  0.90947  0.98181  0.99015  1.0000
  C   C7        1.0  0.87496  0.99433  0.02614  1.0000
  N   N1        1.0  0.85440  0.03725  0.01844  1.0000
  C   C8        1.0  0.81842  0.04651  0.99250  1.0000
  N   N2        1.0  0.80981  0.08938  0.99433  1.0000
  C   C9        1.0  0.84183  0.10505  0.02267  1.0000
  N   N3        1.0  0.86997  0.07429  0.03833  1.0000
  N   N4        1.0  0.92372  0.93495  0.99432  1.0000
  C   C10       1.0  0.96747  0.93020  0.01416  1.0000
  O   O2        1.0  0.97482  0.88416  0.02124  1.0000
  C   C11       1.0  0.16074  0.00463  0.99739  1.0000
  C   C12       1.0  0.20312  0.01170  0.01428  1.0000
  C   C13       1.0  0.21107  0.05708  0.02574  1.0000
  C   C14       1.0  0.17454  0.08345  0.01720  1.0000
  S   S2        1.0  0.13126  0.05347  0.99551  1.0000
  H   H1        1.0  0.09176  0.92911  0.94539  1.0000
  H   H2        1.0  0.08620  0.98750  0.94530  1.0000
  H   H3        1.0  0.00915  0.92657  0.95509  1.0000
  H   H4        1.0  0.97919  0.99095  0.92914  1.0000
  H   H5        1.0  0.01633  0.01980  0.96370  1.0000
  H   H6        1.0  0.93918  0.04596  0.97372  1.0000
  H   H7        1.0  0.95977  0.02278  0.02358  1.0000
  H   H8        1.0  0.89298  0.98416  0.95756  1.0000
  H   H9        1.0  0.89004  0.99484  0.05943  1.0000
  H   H10       1.0  0.84781  0.96984  0.02690  1.0000
  H   H11       1.0  0.80036  0.02174  0.97356  1.0000
  H   H12       1.0  0.84469  0.13976  0.03210  1.0000
  H   H13       1.0  0.90197  0.91581  0.01196  1.0000
  H   H14       1.0  0.96788  0.94618  0.04708  1.0000
  H   H15       1.0  0.00570  0.88151  0.03099  1.0000
  H   H16       1.0  0.22730  0.98511  0.01826  1.0000
  H   H17       1.0  0.24197  0.06966  0.03957  1.0000
  H   H18       1.0  0.17115  0.11892  0.02268  1.0000
