data_image0
_chemical_formula_structural       OC4NC7NONC2OC2H17
_chemical_formula_sum              "O3 C15 N3 H17"
_cell_length_a       30
_cell_length_b       30
_cell_length_c       30
_cell_angle_alpha    90
_cell_angle_beta     90
_cell_angle_gamma    90

_space_group_name_H-M_alt    "P 1"
_space_group_IT_number       1

loop_
  _space_group_symop_operation_xyz
  'x, y, z'

loop_
  _atom_site_type_symbol
  _atom_site_label
  _atom_site_symmetry_multiplicity
  _atom_site_fract_x
  _atom_site_fract_y
  _atom_site_fract_z
  _atom_site_occupancy
  O   O1        1.0  0.96546  0.04924  0.02259  1.0000
  C   C1        1.0  0.93946  0.02829  0.99882  1.0000
  C   C2        1.0  0.94933  0.01981  0.94985  1.0000
  C   C3        1.0  0.99440  0.03847  0.93524  1.0000
  C   C4        1.0  0.03270  0.01176  0.95161  1.0000
  N   N1        1.0  0.06881  0.02465  0.97262  1.0000
  C   C5        1.0  0.09195  0.98528  0.97802  1.0000
  C   C6        1.0  0.13485  0.98332  0.00088  1.0000
  C   C7        1.0  0.15868  0.94321  0.00425  1.0000
  C   C8        1.0  0.19975  0.94177  0.02621  1.0000
  C   C9        1.0  0.21743  0.98037  0.04506  1.0000
  C   C10       1.0  0.19412  0.02043  0.04201  1.0000
  C   C11       1.0  0.15307  0.02190  0.02005  1.0000
  N   N2        1.0  0.07143  0.94972  0.96004  1.0000
  O   O2        1.0  0.03232  0.96727  0.94233  1.0000
  N   N3        1.0  0.89934  0.01202  0.01492  1.0000
  C   C12       1.0  0.86597  0.98787  0.98859  1.0000
  C   C13       1.0  0.83331  0.96259  0.01862  1.0000
  O   O3        1.0  0.81025  0.99088  0.04941  1.0000
  C   C14       1.0  0.83622  0.02783  0.06525  1.0000
  C   C15       1.0  0.88668  0.02114  0.06122  1.0000
  H   H1        1.0  0.94787  0.98395  0.94324  1.0000
  H   H2        1.0  0.92312  0.03626  0.93041  1.0000
  H   H3        1.0  0.99571  0.03875  0.89871  1.0000
  H   H4        1.0  0.99814  0.07316  0.94613  1.0000
  H   H5        1.0  0.14547  0.91268  0.98979  1.0000
  H   H6        1.0  0.21786  0.91048  0.02859  1.0000
  H   H7        1.0  0.24935  0.97923  0.06216  1.0000
  H   H8        1.0  0.20779  0.05058  0.05674  1.0000
  H   H9        1.0  0.13524  0.05345  0.01806  1.0000
  H   H10       1.0  0.84813  0.01295  0.96891  1.0000
  H   H11       1.0  0.88233  0.96471  0.96573  1.0000
  H   H12       1.0  0.80818  0.94556  0.99838  1.0000
  H   H13       1.0  0.85088  0.93703  0.03795  1.0000
  H   H14       1.0  0.82594  0.05721  0.04611  1.0000
  H   H15       1.0  0.82696  0.03367  0.10005  1.0000
  H   H16       1.0  0.89717  0.99211  0.08078  1.0000
  H   H17       1.0  0.90432  0.05041  0.07399  1.0000
