data_image0
_chemical_formula_structural       OC2FC4FC2NC6OCH19
_chemical_formula_sum              "O2 C15 F2 N1 H19"
_cell_length_a       30
_cell_length_b       30
_cell_length_c       30
_cell_angle_alpha    90
_cell_angle_beta     90
_cell_angle_gamma    90

_space_group_name_H-M_alt    "P 1"
_space_group_IT_number       1

loop_
  _space_group_symop_operation_xyz
  'x, y, z'

loop_
  _atom_site_type_symbol
  _atom_site_label
  _atom_site_symmetry_multiplicity
  _atom_site_fract_x
  _atom_site_fract_y
  _atom_site_fract_z
  _atom_site_occupancy
  O   O1        1.0  0.04133  0.93900  0.01458  1.0000
  C   C1        1.0  0.02593  0.96954  0.99167  1.0000
  C   C2        1.0  0.05105  0.01412  0.98534  1.0000
  F   F1        1.0  0.02312  0.05001  0.99048  1.0000
  C   C3        1.0  0.09195  0.01864  0.01489  1.0000
  C   C4        1.0  0.13149  0.99563  0.00472  1.0000
  C   C5        1.0  0.16891  0.99992  0.03204  1.0000
  C   C6        1.0  0.16690  0.02710  0.06949  1.0000
  F   F2        1.0  0.20286  0.03122  0.09563  1.0000
  C   C7        1.0  0.12813  0.05005  0.08024  1.0000
  C   C8        1.0  0.09064  0.04580  0.05301  1.0000
  N   N1        1.0  0.98583  0.96368  0.96847  1.0000
  C   C9        1.0  0.96113  0.92242  0.97537  1.0000
  C   C10       1.0  0.93422  0.92187  0.01849  1.0000
  C   C11       1.0  0.91080  0.96530  0.03128  1.0000
  C   C12       1.0  0.89244  0.99315  0.99266  1.0000
  C   C13       1.0  0.92784  0.02391  0.97130  1.0000
  C   C14       1.0  0.90571  0.05908  0.94137  1.0000
  O   O2        1.0  0.87674  0.08705  0.96634  1.0000
  C   C15       1.0  0.96253  0.99845  0.94354  1.0000
  H   H1        1.0  0.06236  0.01517  0.95058  1.0000
  H   H2        1.0  0.13320  0.97384  0.97577  1.0000
  H   H3        1.0  0.19947  0.98209  0.02451  1.0000
  H   H4        1.0  0.12730  0.07097  0.10973  1.0000
  H   H5        1.0  0.06033  0.06377  0.06165  1.0000
  H   H6        1.0  0.93917  0.91689  0.94669  1.0000
  H   H7        1.0  0.98457  0.89436  0.97565  1.0000
  H   H8        1.0  0.90938  0.89514  0.01594  1.0000
  H   H9        1.0  0.95604  0.91237  0.04627  1.0000
  H   H10       1.0  0.88316  0.95668  0.05364  1.0000
  H   H11       1.0  0.93355  0.98578  0.05132  1.0000
  H   H12       1.0  0.87682  0.97175  0.96748  1.0000
  H   H13       1.0  0.86570  0.01396  0.00644  1.0000
  H   H14       1.0  0.94465  0.04155  0.99858  1.0000
  H   H15       1.0  0.88604  0.04327  0.91500  1.0000
  H   H16       1.0  0.93073  0.08037  0.92545  1.0000
  H   H17       1.0  0.89447  0.10162  0.98926  1.0000
  H   H18       1.0  0.98691  0.02177  0.92968  1.0000
  H   H19       1.0  0.94661  0.98269  0.91461  1.0000
