data_image0
_chemical_formula_structural       OCNC5ClNC2OC12H17
_chemical_formula_sum              "O2 C20 N2 Cl1 H17"
_cell_length_a       30
_cell_length_b       30
_cell_length_c       30
_cell_angle_alpha    90
_cell_angle_beta     90
_cell_angle_gamma    90

_space_group_name_H-M_alt    "P 1"
_space_group_IT_number       1

loop_
  _space_group_symop_operation_xyz
  'x, y, z'

loop_
  _atom_site_type_symbol
  _atom_site_label
  _atom_site_symmetry_multiplicity
  _atom_site_fract_x
  _atom_site_fract_y
  _atom_site_fract_z
  _atom_site_occupancy
  O   O1        1.0  0.98122  0.99337  0.07070  1.0000
  C   C1        1.0  0.99725  0.99654  0.03308  1.0000
  N   N1        1.0  0.04169  0.00740  0.02646  1.0000
  C   C2        1.0  0.06911  0.02213  0.06300  1.0000
  C   C3        1.0  0.11695  0.02566  0.04910  1.0000
  C   C4        1.0  0.13447  0.06515  0.03156  1.0000
  C   C5        1.0  0.17892  0.06662  0.01828  1.0000
  C   C6        1.0  0.20412  0.02824  0.02286  1.0000
  Cl  Cl1       1.0  0.25908  0.02723  0.00723  1.0000
  N   N2        1.0  0.18852  0.98942  0.03923  1.0000
  C   C7        1.0  0.14529  0.98901  0.05188  1.0000
  C   C8        1.0  0.97041  0.98943  0.98835  1.0000
  O   O2        1.0  0.00308  0.98987  0.95263  1.0000
  C   C9        1.0  0.94691  0.94396  0.98480  1.0000
  C   C10       1.0  0.95178  0.91000  0.01667  1.0000
  C   C11       1.0  0.93061  0.86882  0.01124  1.0000
  C   C12       1.0  0.90446  0.86065  0.97379  1.0000
  C   C13       1.0  0.89945  0.89360  0.94158  1.0000
  C   C14       1.0  0.92054  0.93474  0.94694  1.0000
  C   C15       1.0  0.93847  0.02905  0.98241  1.0000
  C   C16       1.0  0.94473  0.06114  0.94881  1.0000
  C   C17       1.0  0.91535  0.09698  0.94416  1.0000
  C   C18       1.0  0.87928  0.10145  0.97302  1.0000
  C   C19       1.0  0.87252  0.07014  0.00659  1.0000
  C   C20       1.0  0.90182  0.03428  0.01127  1.0000
  H   H1        1.0  0.04927  0.01708  0.99484  1.0000
  H   H2        1.0  0.05654  0.05452  0.07435  1.0000
  H   H3        1.0  0.06540  0.99898  0.09105  1.0000
  H   H4        1.0  0.11374  0.09471  0.02824  1.0000
  H   H5        1.0  0.19331  0.09686  0.00474  1.0000
  H   H6        1.0  0.13358  0.95717  0.06467  1.0000
  H   H7        1.0  0.01245  0.95902  0.94875  1.0000
  H   H8        1.0  0.97182  0.91466  0.04652  1.0000
  H   H9        1.0  0.93453  0.84309  0.03648  1.0000
  H   H10       1.0  0.88800  0.82863  0.96977  1.0000
  H   H11       1.0  0.87909  0.88740  0.91226  1.0000
  H   H12       1.0  0.91624  0.95996  0.92117  1.0000
  H   H13       1.0  0.97256  0.05848  0.92571  1.0000
  H   H14       1.0  0.92066  0.12139  0.91792  1.0000
  H   H15       1.0  0.85645  0.12934  0.96937  1.0000
  H   H16       1.0  0.84444  0.07356  0.02923  1.0000
  H   H17       1.0  0.89591  0.01029  0.03790  1.0000
