data_image0
_chemical_formula_structural       OC3SC6NCONC9OH18
_chemical_formula_sum              "O3 C19 S1 N2 H18"
_cell_length_a       30
_cell_length_b       30
_cell_length_c       30
_cell_angle_alpha    90
_cell_angle_beta     90
_cell_angle_gamma    90

_space_group_name_H-M_alt    "P 1"
_space_group_IT_number       1

loop_
  _space_group_symop_operation_xyz
  'x, y, z'

loop_
  _atom_site_type_symbol
  _atom_site_label
  _atom_site_symmetry_multiplicity
  _atom_site_fract_x
  _atom_site_fract_y
  _atom_site_fract_z
  _atom_site_occupancy
  O   O1        1.0  0.97527  0.07600  0.99007  1.0000
  C   C1        1.0  0.99032  0.03807  0.99064  1.0000
  C   C2        1.0  0.03669  0.02631  0.97453  1.0000
  C   C3        1.0  0.06811  0.06634  0.97799  1.0000
  S   S1        1.0  0.11544  0.05876  0.94021  1.0000
  C   C4        1.0  0.14683  0.01935  0.97150  1.0000
  C   C5        1.0  0.17661  0.99151  0.94881  1.0000
  C   C6        1.0  0.20355  0.96170  0.97228  1.0000
  C   C7        1.0  0.20128  0.95993  0.01862  1.0000
  C   C8        1.0  0.17195  0.98784  0.04153  1.0000
  C   C9        1.0  0.14440  0.01724  0.01807  1.0000
  N   N1        1.0  0.11597  0.04490  0.04272  1.0000
  C   C10       1.0  0.08352  0.07229  0.02606  1.0000
  O   O2        1.0  0.06493  0.09836  0.05178  1.0000
  N   N2        1.0  0.96609  0.00149  0.00405  1.0000
  C   C11       1.0  0.91990  0.00534  0.01781  1.0000
  C   C12       1.0  0.88771  0.99192  0.98182  1.0000
  C   C13       1.0  0.88787  0.00405  0.93719  1.0000
  C   C14       1.0  0.85356  0.98859  0.90980  1.0000
  C   C15       1.0  0.81940  0.96184  0.92723  1.0000
  C   C16       1.0  0.81897  0.95033  0.97232  1.0000
  C   C17       1.0  0.85335  0.96550  0.99917  1.0000
  C   C18       1.0  0.85877  0.95865  0.04826  1.0000
  C   C19       1.0  0.90798  0.97139  0.05531  1.0000
  O   O3        1.0  0.91494  0.98880  0.09899  1.0000
  H   H1        1.0  0.03268  0.01562  0.93977  1.0000
  H   H2        1.0  0.04905  0.99777  0.99373  1.0000
  H   H3        1.0  0.05190  0.09730  0.96747  1.0000
  H   H4        1.0  0.17934  0.99308  0.91268  1.0000
  H   H5        1.0  0.22661  0.94022  0.95438  1.0000
  H   H6        1.0  0.22252  0.93697  0.03694  1.0000
  H   H7        1.0  0.17076  0.98613  0.07771  1.0000
  H   H8        1.0  0.12050  0.04754  0.07607  1.0000
  H   H9        1.0  0.97753  0.97068  0.99656  1.0000
  H   H10       1.0  0.91279  0.03953  0.02862  1.0000
  H   H11       1.0  0.91376  0.02551  0.92378  1.0000
  H   H12       1.0  0.85307  0.99772  0.87472  1.0000
  H   H13       1.0  0.79278  0.95036  0.90546  1.0000
  H   H14       1.0  0.79215  0.93015  0.98584  1.0000
  H   H15       1.0  0.85280  0.92402  0.05805  1.0000
  H   H16       1.0  0.83628  0.98044  0.06702  1.0000
  H   H17       1.0  0.92863  0.94131  0.05222  1.0000
  H   H18       1.0  0.90346  0.01915  0.09981  1.0000
