data_image0
_chemical_formula_structural       OCOC12NC3OC3H23
_chemical_formula_sum              "O3 C19 N1 H23"
_cell_length_a       30
_cell_length_b       30
_cell_length_c       30
_cell_angle_alpha    90
_cell_angle_beta     90
_cell_angle_gamma    90

_space_group_name_H-M_alt    "P 1"
_space_group_IT_number       1

loop_
  _space_group_symop_operation_xyz
  'x, y, z'

loop_
  _atom_site_type_symbol
  _atom_site_label
  _atom_site_symmetry_multiplicity
  _atom_site_fract_x
  _atom_site_fract_y
  _atom_site_fract_z
  _atom_site_occupancy
  O   O1        1.0  0.95916  0.09906  0.95963  1.0000
  C   C1        1.0  0.94614  0.07891  0.99227  1.0000
  O   O2        1.0  0.91938  0.09769  0.02286  1.0000
  C   C2        1.0  0.95781  0.03300  0.00475  1.0000
  C   C3        1.0  0.92748  0.00020  0.99862  1.0000
  C   C4        1.0  0.88093  0.00615  0.97984  1.0000
  C   C5        1.0  0.84689  0.97822  0.00558  1.0000
  C   C6        1.0  0.85922  0.92866  0.00794  1.0000
  C   C7        1.0  0.90723  0.91868  0.99389  1.0000
  C   C8        1.0  0.93897  0.95411  0.00987  1.0000
  C   C9        1.0  0.97495  0.94508  0.03489  1.0000
  C   C10       1.0  0.00518  0.98140  0.05136  1.0000
  C   C11       1.0  0.00502  0.02389  0.02158  1.0000
  C   C12       1.0  0.02637  0.06253  0.04819  1.0000
  C   C13       1.0  0.05976  0.08352  0.01631  1.0000
  N   N1        1.0  0.07662  0.04656  0.98909  1.0000
  C   C14       1.0  0.11356  0.02320  0.01107  1.0000
  C   C15       1.0  0.13449  0.99054  0.97987  1.0000
  C   C16       1.0  0.15332  0.99924  0.93875  1.0000
  O   O3        1.0  0.16963  0.96143  0.92006  1.0000
  C   C17       1.0  0.16132  0.92781  0.94912  1.0000
  C   C18       1.0  0.13993  0.94379  0.98637  1.0000
  C   C19       1.0  0.03701  0.01832  0.98115  1.0000
  H   H1        1.0  0.91408  0.12771  0.01118  1.0000
  H   H2        1.0  0.88093  0.99603  0.94467  1.0000
  H   H3        1.0  0.87001  0.04094  0.98053  1.0000
  H   H4        1.0  0.84402  0.99132  0.03964  1.0000
  H   H5        1.0  0.81382  0.98191  0.99046  1.0000
  H   H6        1.0  0.83651  0.90936  0.98676  1.0000
  H   H7        1.0  0.85364  0.91679  0.04209  1.0000
  H   H8        1.0  0.91670  0.88558  0.00618  1.0000
  H   H9        1.0  0.90911  0.91686  0.95738  1.0000
  H   H10       1.0  0.98263  0.91107  0.04469  1.0000
  H   H11       1.0  0.03903  0.96789  0.05394  1.0000
  H   H12       1.0  0.99472  0.98966  0.08546  1.0000
  H   H13       1.0  0.00237  0.08706  0.06056  1.0000
  H   H14       1.0  0.04434  0.04994  0.07748  1.0000
  H   H15       1.0  0.08605  0.10180  0.03387  1.0000
  H   H16       1.0  0.04303  0.10762  0.99454  1.0000
  H   H17       1.0  0.10324  0.00662  0.04192  1.0000
  H   H18       1.0  0.13950  0.04732  0.02031  1.0000
  H   H19       1.0  0.15720  0.02930  0.91923  1.0000
  H   H20       1.0  0.17244  0.89515  0.93873  1.0000
  H   H21       1.0  0.12947  0.92421  0.01475  1.0000
  H   H22       1.0  0.02145  0.03049  0.95035  1.0000
  H   H23       1.0  0.04535  0.98338  0.97454  1.0000
