data_image0
_chemical_formula_structural       OCNC2NCOC10OCOC2H14
_chemical_formula_sum              "O4 C17 N2 H14"
_cell_length_a       30
_cell_length_b       30
_cell_length_c       30
_cell_angle_alpha    90
_cell_angle_beta     90
_cell_angle_gamma    90

_space_group_name_H-M_alt    "P 1"
_space_group_IT_number       1

loop_
  _space_group_symop_operation_xyz
  'x, y, z'

loop_
  _atom_site_type_symbol
  _atom_site_label
  _atom_site_symmetry_multiplicity
  _atom_site_fract_x
  _atom_site_fract_y
  _atom_site_fract_z
  _atom_site_occupancy
  O   O1        1.0  0.01477  0.98501  0.07149  1.0000
  C   C1        1.0  0.03309  0.98348  0.03500  1.0000
  N   N1        1.0  0.01073  0.97230  0.99644  1.0000
  C   C2        1.0  0.96314  0.96276  0.99730  1.0000
  C   C3        1.0  0.93431  0.00471  0.00366  1.0000
  N   N2        1.0  0.94119  0.03678  0.96785  1.0000
  C   C4        1.0  0.90235  0.04846  0.94639  1.0000
  O   O2        1.0  0.89806  0.07624  0.91729  1.0000
  C   C5        1.0  0.86674  0.02131  0.96596  1.0000
  C   C6        1.0  0.82201  0.02004  0.95512  1.0000
  C   C7        1.0  0.79494  0.99128  0.97970  1.0000
  C   C8        1.0  0.81303  0.96506  0.01415  1.0000
  C   C9        1.0  0.85848  0.96706  0.02459  1.0000
  C   C10       1.0  0.88527  0.99542  0.99992  1.0000
  C   C11       1.0  0.08102  0.99548  0.03036  1.0000
  C   C12       1.0  0.10008  0.02356  0.06305  1.0000
  C   C13       1.0  0.14493  0.03607  0.06057  1.0000
  C   C14       1.0  0.16962  0.01982  0.02545  1.0000
  O   O3        1.0  0.21346  0.02826  0.01772  1.0000
  C   C15       1.0  0.22081  0.00256  0.97775  1.0000
  O   O4        1.0  0.18142  0.97960  0.96232  1.0000
  C   C16       1.0  0.15131  0.99212  0.99383  1.0000
  C   C17       1.0  0.10722  0.97913  0.99528  1.0000
  H   H1        1.0  0.02479  0.97848  0.96643  1.0000
  H   H2        1.0  0.95678  0.93888  0.02422  1.0000
  H   H3        1.0  0.95533  0.94618  0.96568  1.0000
  H   H4        1.0  0.94160  0.02183  0.03507  1.0000
  H   H5        1.0  0.96899  0.05545  0.96419  1.0000
  H   H6        1.0  0.80868  0.04074  0.92863  1.0000
  H   H7        1.0  0.75949  0.98924  0.97233  1.0000
  H   H8        1.0  0.79125  0.94305  0.03306  1.0000
  H   H9        1.0  0.87199  0.94697  0.05151  1.0000
  H   H10       1.0  0.07972  0.03570  0.09055  1.0000
  H   H11       1.0  0.15978  0.05767  0.08547  1.0000
  H   H12       1.0  0.23231  0.02504  0.95134  1.0000
  H   H13       1.0  0.24691  0.97786  0.98434  1.0000
  H   H14       1.0  0.09439  0.95640  0.97034  1.0000
