data_image0
_chemical_formula_structural       OCOC6OC2NC2H13
_chemical_formula_sum              "O3 C11 N1 H13"
_cell_length_a       30
_cell_length_b       30
_cell_length_c       30
_cell_angle_alpha    90
_cell_angle_beta     90
_cell_angle_gamma    90

_space_group_name_H-M_alt    "P 1"
_space_group_IT_number       1

loop_
  _space_group_symop_operation_xyz
  'x, y, z'

loop_
  _atom_site_type_symbol
  _atom_site_label
  _atom_site_symmetry_multiplicity
  _atom_site_fract_x
  _atom_site_fract_y
  _atom_site_fract_z
  _atom_site_occupancy
  O   O1        1.0  0.18530  0.98805  0.97001  1.0000
  C   C1        1.0  0.15000  0.00804  0.97001  1.0000
  O   O2        1.0  0.14684  0.04951  0.95324  1.0000
  C   C2        1.0  0.10702  0.99106  0.98758  1.0000
  C   C3        1.0  0.10617  0.94831  0.00621  1.0000
  C   C4        1.0  0.06649  0.93114  0.02329  1.0000
  C   C5        1.0  0.02757  0.95658  0.02174  1.0000
  C   C6        1.0  0.02764  0.99935  0.00283  1.0000
  C   C7        1.0  0.98596  0.02742  0.00223  1.0000
  O   O3        1.0  0.94846  0.00061  0.99069  1.0000
  C   C8        1.0  0.90577  0.02330  0.99072  1.0000
  C   C9        1.0  0.86491  0.99407  0.97966  1.0000
  N   N1        1.0  0.85673  0.98840  0.02804  1.0000
  C   C10       1.0  0.88264  0.02958  0.03628  1.0000
  C   C11       1.0  0.06784  0.01651  0.98609  1.0000
  H   H1        1.0  0.17719  0.05601  0.94303  1.0000
  H   H2        1.0  0.13638  0.92827  0.00751  1.0000
  H   H3        1.0  0.06585  0.89794  0.03779  1.0000
  H   H4        1.0  0.99680  0.94277  0.03517  1.0000
  H   H5        1.0  0.98101  0.04220  0.03525  1.0000
  H   H6        1.0  0.98894  0.05422  0.97760  1.0000
  H   H7        1.0  0.90745  0.05365  0.97043  1.0000
  H   H8        1.0  0.87190  0.96304  0.96182  1.0000
  H   H9        1.0  0.83807  0.01174  0.96226  1.0000
  H   H10       1.0  0.87233  0.96070  0.04030  1.0000
  H   H11       1.0  0.90421  0.02807  0.06564  1.0000
  H   H12       1.0  0.86201  0.05966  0.03856  1.0000
  H   H13       1.0  0.06852  0.04981  0.97173  1.0000
