data_image0
_chemical_formula_structural       OC3NCOC3OC6FH12
_chemical_formula_sum              "O3 C13 N1 F1 H12"
_cell_length_a       30
_cell_length_b       30
_cell_length_c       30
_cell_angle_alpha    90
_cell_angle_beta     90
_cell_angle_gamma    90

_space_group_name_H-M_alt    "P 1"
_space_group_IT_number       1

loop_
  _space_group_symop_operation_xyz
  'x, y, z'

loop_
  _atom_site_type_symbol
  _atom_site_label
  _atom_site_symmetry_multiplicity
  _atom_site_fract_x
  _atom_site_fract_y
  _atom_site_fract_z
  _atom_site_occupancy
  O   O1        1.0  0.93619  0.05487  0.95248  1.0000
  C   C1        1.0  0.95200  0.03554  0.98502  1.0000
  C   C2        1.0  0.00172  0.02885  0.98982  1.0000
  C   C3        1.0  0.01841  0.99724  0.95377  1.0000
  N   N1        1.0  0.06600  0.98902  0.95775  1.0000
  C   C4        1.0  0.08372  0.95489  0.98199  1.0000
  O   O2        1.0  0.06324  0.92654  0.00283  1.0000
  C   C5        1.0  0.13359  0.95750  0.97983  1.0000
  C   C6        1.0  0.14296  0.99854  0.95183  1.0000
  C   C7        1.0  0.09775  0.01676  0.94077  1.0000
  O   O3        1.0  0.09146  0.05129  0.92013  1.0000
  C   C8        1.0  0.92136  0.01979  0.02045  1.0000
  C   C9        1.0  0.88203  0.04378  0.02819  1.0000
  C   C10       1.0  0.85226  0.02992  0.06121  1.0000
  C   C11       1.0  0.86142  0.99190  0.08637  1.0000
  C   C12       1.0  0.90022  0.96759  0.07833  1.0000
  C   C13       1.0  0.92985  0.98154  0.04539  1.0000
  F   F1        1.0  0.96606  0.95660  0.03768  1.0000
  H   H1        1.0  0.01753  0.06166  0.98654  1.0000
  H   H2        1.0  0.01063  0.01712  0.02317  1.0000
  H   H3        1.0  0.00076  0.96530  0.95580  1.0000
  H   H4        1.0  0.01191  0.01136  0.92069  1.0000
  H   H5        1.0  0.14723  0.96100  0.01346  1.0000
  H   H6        1.0  0.14696  0.92737  0.96427  1.0000
  H   H7        1.0  0.16210  0.02331  0.97053  1.0000
  H   H8        1.0  0.16068  0.99000  0.92113  1.0000
  H   H9        1.0  0.87448  0.07334  0.00851  1.0000
  H   H10       1.0  0.82183  0.04874  0.06715  1.0000
  H   H11       1.0  0.83817  0.98104  0.11198  1.0000
  H   H12       1.0  0.90746  0.93761  0.09730  1.0000
