data_image0
_chemical_formula_structural       OCNC3SC2N2CONC4ClCClCH12
_chemical_formula_sum              "O2 C13 N4 S1 Cl2 H12"
_cell_length_a       30
_cell_length_b       30
_cell_length_c       30
_cell_angle_alpha    90
_cell_angle_beta     90
_cell_angle_gamma    90

_space_group_name_H-M_alt    "P 1"
_space_group_IT_number       1

loop_
  _space_group_symop_operation_xyz
  'x, y, z'

loop_
  _atom_site_type_symbol
  _atom_site_label
  _atom_site_symmetry_multiplicity
  _atom_site_fract_x
  _atom_site_fract_y
  _atom_site_fract_z
  _atom_site_occupancy
  O   O1        1.0  0.03813  0.97930  0.92809  1.0000
  C   C1        1.0  0.04812  0.00684  0.95667  1.0000
  N   N1        1.0  0.09004  0.01229  0.97363  1.0000
  C   C2        1.0  0.12502  0.98167  0.96146  1.0000
  C   C3        1.0  0.16782  0.99853  0.98050  1.0000
  C   C4        1.0  0.18770  0.98259  0.01894  1.0000
  S   S1        1.0  0.23642  0.00942  0.03147  1.0000
  C   C5        1.0  0.23190  0.04285  0.98560  1.0000
  C   C6        1.0  0.19402  0.03371  0.96134  1.0000
  N   N2        1.0  0.01784  0.03692  0.97381  1.0000
  N   N3        1.0  0.97236  0.02821  0.96312  1.0000
  C   C7        1.0  0.94479  0.02017  0.99951  1.0000
  O   O2        1.0  0.95777  0.02619  0.03782  1.0000
  N   N4        1.0  0.90311  0.00629  0.98608  1.0000
  C   C8        1.0  0.86704  0.99345  0.01325  1.0000
  C   C9        1.0  0.82654  0.98433  0.99190  1.0000
  C   C10       1.0  0.78917  0.97120  0.01645  1.0000
  C   C11       1.0  0.79192  0.96692  0.06269  1.0000
  Cl  Cl1       1.0  0.74451  0.95055  0.09096  1.0000
  C   C12       1.0  0.83226  0.97578  0.08426  1.0000
  Cl  Cl2       1.0  0.83820  0.97097  0.14140  1.0000
  C   C13       1.0  0.86965  0.98896  0.05954  1.0000
  H   H1        1.0  0.09329  0.02906  0.00261  1.0000
  H   H2        1.0  0.12682  0.97917  0.92506  1.0000
  H   H3        1.0  0.11657  0.94867  0.97466  1.0000
  H   H4        1.0  0.17593  0.95623  0.04055  1.0000
  H   H5        1.0  0.25718  0.06757  0.97860  1.0000
  H   H6        1.0  0.18523  0.05146  0.93112  1.0000
  H   H7        1.0  0.02207  0.04621  0.00621  1.0000
  H   H8        1.0  0.96951  0.00634  0.93724  1.0000
  H   H9        1.0  0.89714  0.00894  0.95303  1.0000
  H   H10       1.0  0.82338  0.98735  0.95591  1.0000
  H   H11       1.0  0.75801  0.96434  0.99924  1.0000
  H   H12       1.0  0.90054  0.99537  0.07729  1.0000
