data_image0
_chemical_formula_structural       OC5N3C2NC13OH18
_chemical_formula_sum              "O2 C20 N4 H18"
_cell_length_a       30
_cell_length_b       30
_cell_length_c       30
_cell_angle_alpha    90
_cell_angle_beta     90
_cell_angle_gamma    90

_space_group_name_H-M_alt    "P 1"
_space_group_IT_number       1

loop_
  _space_group_symop_operation_xyz
  'x, y, z'

loop_
  _atom_site_type_symbol
  _atom_site_label
  _atom_site_symmetry_multiplicity
  _atom_site_fract_x
  _atom_site_fract_y
  _atom_site_fract_z
  _atom_site_occupancy
  O   O1        1.0  0.07082  0.91929  0.06728  1.0000
  C   C1        1.0  0.06882  0.95037  0.04071  1.0000
  C   C2        1.0  0.11074  0.97409  0.02999  1.0000
  C   C3        1.0  0.12406  0.97914  0.98540  1.0000
  C   C4        1.0  0.16401  0.00063  0.97448  1.0000
  C   C5        1.0  0.18945  0.01605  0.01026  1.0000
  N   N1        1.0  0.22935  0.03788  0.01308  1.0000
  N   N2        1.0  0.24098  0.04609  0.05552  1.0000
  N   N3        1.0  0.20921  0.02945  0.08144  1.0000
  C   C6        1.0  0.17727  0.01087  0.05466  1.0000
  C   C7        1.0  0.13737  0.98919  0.06532  1.0000
  N   N4        1.0  0.02943  0.96374  0.01942  1.0000
  C   C8        1.0  0.98997  0.93691  0.02903  1.0000
  C   C9        1.0  0.95444  0.94160  0.99296  1.0000
  C   C10       1.0  0.94311  0.99062  0.98327  1.0000
  C   C11       1.0  0.98612  0.01642  0.97286  1.0000
  C   C12       1.0  0.02107  0.01076  0.00931  1.0000
  C   C13       1.0  0.91581  0.01240  0.02172  1.0000
  C   C14       1.0  0.87159  0.02317  0.00127  1.0000
  C   C15       1.0  0.83493  0.04224  0.02195  1.0000
  C   C16       1.0  0.79651  0.04988  0.99660  1.0000
  C   C17       1.0  0.79504  0.03854  0.95117  1.0000
  C   C18       1.0  0.83201  0.01940  0.93050  1.0000
  C   C19       1.0  0.86949  0.01220  0.95638  1.0000
  C   C20       1.0  0.91200  0.99294  0.94311  1.0000
  O   O2        1.0  0.92031  0.98085  0.90521  1.0000
  H   H1        1.0  0.10320  0.96587  0.95880  1.0000
  H   H2        1.0  0.17451  0.00463  0.94011  1.0000
  H   H3        1.0  0.24997  0.04800  0.98835  1.0000
  H   H4        1.0  0.12758  0.98429  0.09978  1.0000
  H   H5        1.0  0.97717  0.94725  0.06167  1.0000
  H   H6        1.0  0.99945  0.90173  0.03187  1.0000
  H   H7        1.0  0.96677  0.92572  0.96234  1.0000
  H   H8        1.0  0.92447  0.92299  0.00262  1.0000
  H   H9        1.0  0.00022  0.00442  0.94127  1.0000
  H   H10       1.0  0.97901  0.05196  0.96793  1.0000
  H   H11       1.0  0.01016  0.02661  0.04039  1.0000
  H   H12       1.0  0.05160  0.02789  0.99933  1.0000
  H   H13       1.0  0.93136  0.04312  0.03386  1.0000
  H   H14       1.0  0.91113  0.98970  0.04992  1.0000
  H   H15       1.0  0.83572  0.05117  0.05703  1.0000
  H   H16       1.0  0.76736  0.06480  0.01222  1.0000
  H   H17       1.0  0.76486  0.04474  0.93205  1.0000
  H   H18       1.0  0.83156  0.01039  0.89547  1.0000
