data_image0
_chemical_formula_structural       OCNC8NCNC3NC6OC2OC2H22
_chemical_formula_sum              "O3 C23 N4 H22"
_cell_length_a       30
_cell_length_b       30
_cell_length_c       30
_cell_angle_alpha    90
_cell_angle_beta     90
_cell_angle_gamma    90

_space_group_name_H-M_alt    "P 1"
_space_group_IT_number       1

loop_
  _space_group_symop_operation_xyz
  'x, y, z'

loop_
  _atom_site_type_symbol
  _atom_site_label
  _atom_site_symmetry_multiplicity
  _atom_site_fract_x
  _atom_site_fract_y
  _atom_site_fract_z
  _atom_site_occupancy
  O   O1        1.0  0.06250  0.98999  0.94058  1.0000
  C   C1        1.0  0.06812  0.99144  0.98103  1.0000
  N   N1        1.0  0.08572  0.95771  0.00733  1.0000
  C   C2        1.0  0.09705  0.91404  0.99413  1.0000
  C   C3        1.0  0.11608  0.88627  0.02652  1.0000
  C   C4        1.0  0.12800  0.84242  0.01626  1.0000
  C   C5        1.0  0.12092  0.82588  0.97350  1.0000
  C   C6        1.0  0.10191  0.85318  0.94113  1.0000
  C   C7        1.0  0.08998  0.89708  0.95140  1.0000
  C   C8        1.0  0.05791  0.03310  0.00787  1.0000
  C   C9        1.0  0.04129  0.07169  0.97908  1.0000
  N   N2        1.0  0.02095  0.10118  0.01176  1.0000
  C   C10       1.0  0.99767  0.13797  0.99783  1.0000
  N   N3        1.0  0.97155  0.15930  0.02733  1.0000
  C   C11       1.0  0.94932  0.19555  0.01299  1.0000
  C   C12       1.0  0.95209  0.21166  0.97033  1.0000
  C   C13       1.0  0.97961  0.18803  0.94259  1.0000
  N   N4        1.0  0.00248  0.15165  0.95547  1.0000
  C   C14       1.0  0.00752  0.07771  0.05210  1.0000
  C   C15       1.0  0.02177  0.02867  0.04423  1.0000
  C   C16       1.0  0.98327  0.99755  0.03298  1.0000
  C   C17       1.0  0.98207  0.95482  0.05226  1.0000
  C   C18       1.0  0.94767  0.92499  0.04244  1.0000
  C   C19       1.0  0.91382  0.93746  0.01334  1.0000
  O   O2        1.0  0.88081  0.90676  0.00578  1.0000
  C   C20       1.0  0.84310  0.92666  0.98431  1.0000
  C   C21       1.0  0.85784  0.95700  0.94652  1.0000
  O   O3        1.0  0.88322  0.99368  0.96347  1.0000
  C   C22       1.0  0.91485  0.97944  0.99330  1.0000
  C   C23       1.0  0.94899  0.00942  0.00340  1.0000
  H   H1        1.0  0.09171  0.96515  0.03965  1.0000
  H   H2        1.0  0.12201  0.89829  0.06016  1.0000
  H   H3        1.0  0.14280  0.82122  0.04164  1.0000
  H   H4        1.0  0.13012  0.79180  0.96536  1.0000
  H   H5        1.0  0.09617  0.84044  0.90769  1.0000
  H   H6        1.0  0.07500  0.91704  0.92521  1.0000
  H   H7        1.0  0.08918  0.04378  0.02380  1.0000
  H   H8        1.0  0.06917  0.08787  0.96186  1.0000
  H   H9        1.0  0.01708  0.06077  0.95397  1.0000
  H   H10       1.0  0.92854  0.21169  0.03784  1.0000
  H   H11       1.0  0.93399  0.24080  0.95942  1.0000
  H   H12       1.0  0.98441  0.19778  0.90807  1.0000
  H   H13       1.0  0.02618  0.09160  0.08030  1.0000
  H   H14       1.0  0.97189  0.08047  0.05972  1.0000
  H   H15       1.0  0.03704  0.01644  0.07518  1.0000
  H   H16       1.0  0.00803  0.94410  0.07518  1.0000
  H   H17       1.0  0.94722  0.89211  0.05763  1.0000
  H   H18       1.0  0.82223  0.89966  0.97140  1.0000
  H   H19       1.0  0.82381  0.94497  0.00941  1.0000
  H   H20       1.0  0.82876  0.97071  0.92928  1.0000
  H   H21       1.0  0.87819  0.93903  0.92202  1.0000
  H   H22       1.0  0.94838  0.04195  0.98743  1.0000
