data_image0
_chemical_formula_structural       OCNCNC12OCOC2NC5NC3NH23
_chemical_formula_sum              "O3 C25 N5 H23"
_cell_length_a       30
_cell_length_b       30
_cell_length_c       30
_cell_angle_alpha    90
_cell_angle_beta     90
_cell_angle_gamma    90

_space_group_name_H-M_alt    "P 1"
_space_group_IT_number       1

loop_
  _space_group_symop_operation_xyz
  'x, y, z'

loop_
  _atom_site_type_symbol
  _atom_site_label
  _atom_site_symmetry_multiplicity
  _atom_site_fract_x
  _atom_site_fract_y
  _atom_site_fract_z
  _atom_site_occupancy
  O   O1        1.0  0.07476  0.97372  0.04384  1.0000
  C   C1        1.0  0.05948  0.97704  0.00600  1.0000
  N   N1        1.0  0.01491  0.97730  0.99639  1.0000
  C   C2        1.0  0.98829  0.99333  0.02616  1.0000
  N   N2        1.0  0.99796  0.01128  0.06755  1.0000
  C   C3        1.0  0.95811  0.01954  0.09033  1.0000
  C   C4        1.0  0.95388  0.03733  0.13260  1.0000
  C   C5        1.0  0.91109  0.04704  0.14818  1.0000
  C   C6        1.0  0.87352  0.03945  0.12130  1.0000
  C   C7        1.0  0.87802  0.02202  0.07818  1.0000
  C   C8        1.0  0.92039  0.01218  0.06292  1.0000
  C   C9        1.0  0.93779  0.99426  0.02052  1.0000
  C   C10       1.0  0.91810  0.97967  0.98307  1.0000
  C   C11       1.0  0.87004  0.97721  0.97522  1.0000
  C   C12       1.0  0.84402  0.94470  0.99725  1.0000
  C   C13       1.0  0.79794  0.94243  0.99047  1.0000
  C   C14       1.0  0.77921  0.97258  0.96130  1.0000
  O   O2        1.0  0.73522  0.97527  0.95080  1.0000
  C   C15       1.0  0.73574  0.01178  0.91931  1.0000
  O   O3        1.0  0.77960  0.02998  0.91179  1.0000
  C   C16       1.0  0.80452  0.00387  0.93922  1.0000
  C   C17       1.0  0.84997  0.00708  0.94541  1.0000
  N   N3        1.0  0.08665  0.98136  0.96933  1.0000
  C   C18       1.0  0.07038  0.98164  0.92364  1.0000
  C   C19       1.0  0.11128  0.97125  0.89551  1.0000
  C   C20       1.0  0.14907  0.99104  0.92285  1.0000
  C   C21       1.0  0.13561  0.97979  0.97112  1.0000
  C   C22       1.0  0.15684  0.01130  0.00538  1.0000
  N   N4        1.0  0.20489  0.01494  0.00126  1.0000
  C   C23       1.0  0.22911  0.05338  0.99715  1.0000
  C   C24       1.0  0.27309  0.04031  0.99532  1.0000
  C   C25       1.0  0.27187  0.99357  0.99829  1.0000
  N   N5        1.0  0.23040  0.97779  0.00213  1.0000
  H   H1        1.0  0.02685  0.00335  0.08314  1.0000
  H   H2        1.0  0.98291  0.04415  0.15312  1.0000
  H   H3        1.0  0.90682  0.06130  0.18131  1.0000
  H   H4        1.0  0.84053  0.04766  0.13382  1.0000
  H   H5        1.0  0.84867  0.01716  0.05773  1.0000
  H   H6        1.0  0.93849  0.96790  0.95541  1.0000
  H   H7        1.0  0.85974  0.92124  0.02015  1.0000
  H   H8        1.0  0.77764  0.91782  0.00762  1.0000
  H   H9        1.0  0.71407  0.03842  0.93192  1.0000
  H   H10       1.0  0.72237  0.99991  0.88736  1.0000
  H   H11       1.0  0.86917  0.03198  0.92770  1.0000
  H   H12       1.0  0.05734  0.01508  0.91658  1.0000
  H   H13       1.0  0.04380  0.95706  0.91863  1.0000
  H   H14       1.0  0.11564  0.93500  0.89320  1.0000
  H   H15       1.0  0.10926  0.98467  0.86175  1.0000
  H   H16       1.0  0.15020  0.02734  0.91791  1.0000
  H   H17       1.0  0.18156  0.97707  0.91369  1.0000
  H   H18       1.0  0.14464  0.94510  0.97861  1.0000
  H   H19       1.0  0.14282  0.04485  0.00253  1.0000
  H   H20       1.0  0.15077  0.99980  0.03950  1.0000
  H   H21       1.0  0.21350  0.08582  0.99641  1.0000
  H   H22       1.0  0.30201  0.06158  0.99232  1.0000
  H   H23       1.0  0.29944  0.97030  0.99804  1.0000
