data_image0
_chemical_formula_structural       OCNCOC6OC3FC3OH14
_chemical_formula_sum              "O4 C14 N1 F1 H14"
_cell_length_a       30
_cell_length_b       30
_cell_length_c       30
_cell_angle_alpha    90
_cell_angle_beta     90
_cell_angle_gamma    90

_space_group_name_H-M_alt    "P 1"
_space_group_IT_number       1

loop_
  _space_group_symop_operation_xyz
  'x, y, z'

loop_
  _atom_site_type_symbol
  _atom_site_label
  _atom_site_symmetry_multiplicity
  _atom_site_fract_x
  _atom_site_fract_y
  _atom_site_fract_z
  _atom_site_occupancy
  O   O1        1.0  0.05669  0.92802  0.94429  1.0000
  C   C1        1.0  0.05180  0.96261  0.96558  1.0000
  N   N1        1.0  0.01148  0.98132  0.97740  1.0000
  C   C2        1.0  0.96961  0.96718  0.96369  1.0000
  O   O2        1.0  0.96267  0.93876  0.93498  1.0000
  C   C3        1.0  0.93181  0.99325  0.98890  1.0000
  C   C4        1.0  0.90108  0.96343  0.01719  1.0000
  C   C5        1.0  0.87908  0.99124  0.05399  1.0000
  C   C6        1.0  0.87027  0.03927  0.03907  1.0000
  C   C7        1.0  0.90665  0.05381  0.00653  1.0000
  C   C8        1.0  0.90546  0.02849  0.96186  1.0000
  O   O3        1.0  0.94898  0.03092  0.01693  1.0000
  C   C9        1.0  0.09263  0.98531  0.98257  1.0000
  C   C10       1.0  0.09261  0.03062  0.99388  1.0000
  C   C11       1.0  0.13150  0.05022  0.00998  1.0000
  F   F1        1.0  0.13113  0.09353  0.02079  1.0000
  C   C12       1.0  0.17060  0.02587  0.01493  1.0000
  C   C13       1.0  0.17114  0.98099  0.00310  1.0000
  C   C14       1.0  0.13249  0.96097  0.98670  1.0000
  O   O4        1.0  0.13619  0.91693  0.97523  1.0000
  H   H1        1.0  0.01056  0.00586  0.00061  1.0000
  H   H2        1.0  0.91999  0.93623  0.03260  1.0000
  H   H3        1.0  0.87561  0.94814  0.99591  1.0000
  H   H4        1.0  0.90202  0.99232  0.08251  1.0000
  H   H5        1.0  0.84852  0.97534  0.06609  1.0000
  H   H6        1.0  0.83750  0.04186  0.02313  1.0000
  H   H7        1.0  0.86978  0.06115  0.06830  1.0000
  H   H8        1.0  0.91082  0.08989  0.00327  1.0000
  H   H9        1.0  0.92427  0.04438  0.93493  1.0000
  H   H10       1.0  0.87261  0.01863  0.94960  1.0000
  H   H11       1.0  0.06356  0.05174  0.98985  1.0000
  H   H12       1.0  0.20043  0.04201  0.02756  1.0000
  H   H13       1.0  0.20157  0.96157  0.00633  1.0000
  H   H14       1.0  0.10886  0.90815  0.95926  1.0000
