data_image0
_chemical_formula_structural       OCNC6SC5NCOC4OH18
_chemical_formula_sum              "O3 C17 N2 S1 H18"
_cell_length_a       30
_cell_length_b       30
_cell_length_c       30
_cell_angle_alpha    90
_cell_angle_beta     90
_cell_angle_gamma    90

_space_group_name_H-M_alt    "P 1"
_space_group_IT_number       1

loop_
  _space_group_symop_operation_xyz
  'x, y, z'

loop_
  _atom_site_type_symbol
  _atom_site_label
  _atom_site_symmetry_multiplicity
  _atom_site_fract_x
  _atom_site_fract_y
  _atom_site_fract_z
  _atom_site_occupancy
  O   O1        1.0  0.07326  0.95647  0.05007  1.0000
  C   C1        1.0  0.07805  0.95683  0.00968  1.0000
  N   N1        1.0  0.11195  0.97396  0.98457  1.0000
  C   C2        1.0  0.15096  0.99511  0.99961  1.0000
  C   C3        1.0  0.17843  0.01478  0.96732  1.0000
  C   C4        1.0  0.21746  0.03706  0.97971  1.0000
  C   C5        1.0  0.22949  0.03950  0.02448  1.0000
  C   C6        1.0  0.20273  0.01940  0.05670  1.0000
  C   C7        1.0  0.16352  0.99737  0.04433  1.0000
  S   S1        1.0  0.03748  0.93503  0.97362  1.0000
  C   C8        1.0  0.98875  0.95896  0.00097  1.0000
  C   C9        1.0  0.94664  0.95319  0.97226  1.0000
  C   C10       1.0  0.92356  0.90816  0.97947  1.0000
  C   C11       1.0  0.89155  0.91744  0.01785  1.0000
  C   C12       1.0  0.87574  0.96473  0.00861  1.0000
  N   N2        1.0  0.91227  0.98567  0.98451  1.0000
  C   C13       1.0  0.91498  0.02950  0.96932  1.0000
  O   O2        1.0  0.94798  0.04119  0.94770  1.0000
  C   C14       1.0  0.87917  0.06103  0.97853  1.0000
  C   C15       1.0  0.87482  0.10508  0.96488  1.0000
  C   C16       1.0  0.83419  0.12127  0.98251  1.0000
  C   C17       1.0  0.81613  0.08642  0.00613  1.0000
  O   O3        1.0  0.84290  0.04995  0.00387  1.0000
  H   H1        1.0  0.10650  0.97274  0.95132  1.0000
  H   H2        1.0  0.16963  0.01354  0.93228  1.0000
  H   H3        1.0  0.23821  0.05271  0.95450  1.0000
  H   H4        1.0  0.25974  0.05703  0.03426  1.0000
  H   H5        1.0  0.21203  0.02160  0.09162  1.0000
  H   H6        1.0  0.14355  0.98224  0.07051  1.0000
  H   H7        1.0  0.98466  0.94299  0.03369  1.0000
  H   H8        1.0  0.99541  0.99443  0.00704  1.0000
  H   H9        1.0  0.95461  0.95778  0.93679  1.0000
  H   H10       1.0  0.90434  0.89929  0.94958  1.0000
  H   H11       1.0  0.94646  0.88074  0.98658  1.0000
  H   H12       1.0  0.90940  0.91620  0.04977  1.0000
  H   H13       1.0  0.86397  0.89363  0.01943  1.0000
  H   H14       1.0  0.86877  0.98250  0.03979  1.0000
  H   H15       1.0  0.84616  0.96483  0.98715  1.0000
  H   H16       1.0  0.89866  0.12294  0.94450  1.0000
  H   H17       1.0  0.82004  0.15432  0.97857  1.0000
  H   H18       1.0  0.78588  0.08238  0.02533  1.0000
