data_image0
_chemical_formula_structural       OCNC3N2C3NC6OC6H26
_chemical_formula_sum              "O2 C19 N4 H26"
_cell_length_a       30
_cell_length_b       30
_cell_length_c       30
_cell_angle_alpha    90
_cell_angle_beta     90
_cell_angle_gamma    90

_space_group_name_H-M_alt    "P 1"
_space_group_IT_number       1

loop_
  _space_group_symop_operation_xyz
  'x, y, z'

loop_
  _atom_site_type_symbol
  _atom_site_label
  _atom_site_symmetry_multiplicity
  _atom_site_fract_x
  _atom_site_fract_y
  _atom_site_fract_z
  _atom_site_occupancy
  O   O1        1.0  0.17127  0.93337  0.99470  1.0000
  C   C1        1.0  0.14369  0.96286  0.98852  1.0000
  N   N1        1.0  0.09808  0.96000  0.99520  1.0000
  C   C2        1.0  0.07758  0.92248  0.01271  1.0000
  C   C3        1.0  0.09479  0.88293  0.02858  1.0000
  C   C4        1.0  0.05778  0.85796  0.04268  1.0000
  N   N2        1.0  0.01944  0.87957  0.03652  1.0000
  N   N3        1.0  0.03206  0.91853  0.01791  1.0000
  C   C5        1.0  0.99781  0.95078  0.00627  1.0000
  C   C6        1.0  0.98882  0.98322  0.04445  1.0000
  C   C7        1.0  0.95788  0.02154  0.03076  1.0000
  N   N4        1.0  0.91613  0.00696  0.00975  1.0000
  C   C8        1.0  0.88622  0.98503  0.04183  1.0000
  C   C9        1.0  0.84532  0.96548  0.01867  1.0000
  C   C10       1.0  0.81993  0.00069  0.99256  1.0000
  C   C11       1.0  0.85123  0.02614  0.96172  1.0000
  C   C12       1.0  0.89393  0.04340  0.98462  1.0000
  C   C13       1.0  0.88631  0.08836  0.00930  1.0000
  O   O2        1.0  0.85767  0.08563  0.04687  1.0000
  C   C14       1.0  0.15926  0.00651  0.97071  1.0000
  C   C15       1.0  0.19438  0.00677  0.93998  1.0000
  C   C16       1.0  0.20976  0.04704  0.92250  1.0000
  C   C17       1.0  0.19038  0.08711  0.93593  1.0000
  C   C18       1.0  0.15582  0.08708  0.96706  1.0000
  C   C19       1.0  0.14027  0.04686  0.98462  1.0000
  H   H1        1.0  0.07877  0.98562  0.98497  1.0000
  H   H2        1.0  0.12945  0.87321  0.03008  1.0000
  H   H3        1.0  0.05722  0.82498  0.05728  1.0000
  H   H4        1.0  0.96779  0.93190  0.99746  1.0000
  H   H5        1.0  0.00879  0.96827  0.97617  1.0000
  H   H6        1.0  0.97516  0.96518  0.07315  1.0000
  H   H7        1.0  0.02037  0.99772  0.05603  1.0000
  H   H8        1.0  0.95134  0.04249  0.06002  1.0000
  H   H9        1.0  0.97664  0.04217  0.00704  1.0000
  H   H10       1.0  0.90332  0.95715  0.05807  1.0000
  H   H11       1.0  0.87598  0.00782  0.06846  1.0000
  H   H12       1.0  0.85581  0.93875  0.99599  1.0000
  H   H13       1.0  0.82323  0.95021  0.04344  1.0000
  H   H14       1.0  0.79352  0.98482  0.97291  1.0000
  H   H15       1.0  0.80324  0.02346  0.01563  1.0000
  H   H16       1.0  0.83319  0.05372  0.94593  1.0000
  H   H17       1.0  0.86111  0.00362  0.93457  1.0000
  H   H18       1.0  0.91664  0.05174  0.95708  1.0000
  H   H19       1.0  0.91811  0.10210  0.02077  1.0000
  H   H20       1.0  0.87233  0.11301  0.98622  1.0000
  H   H21       1.0  0.82720  0.08532  0.03592  1.0000
  H   H22       1.0  0.20977  0.97558  0.92964  1.0000
  H   H23       1.0  0.23699  0.04713  0.89858  1.0000
  H   H24       1.0  0.20257  0.11847  0.92242  1.0000
  H   H25       1.0  0.14136  0.11848  0.97796  1.0000
  H   H26       1.0  0.11429  0.04763  0.00982  1.0000
