data_image0
_chemical_formula_structural       OCNC5FC11ONC2SO2H19
_chemical_formula_sum              "O4 C19 N2 F1 S1 H19"
_cell_length_a       30
_cell_length_b       30
_cell_length_c       30
_cell_angle_alpha    90
_cell_angle_beta     90
_cell_angle_gamma    90

_space_group_name_H-M_alt    "P 1"
_space_group_IT_number       1

loop_
  _space_group_symop_operation_xyz
  'x, y, z'

loop_
  _atom_site_type_symbol
  _atom_site_label
  _atom_site_symmetry_multiplicity
  _atom_site_fract_x
  _atom_site_fract_y
  _atom_site_fract_z
  _atom_site_occupancy
  O   O1        1.0  0.07927  0.04441  0.96631  1.0000
  C   C1        1.0  0.07974  0.01132  0.99020  1.0000
  N   N1        1.0  0.11689  0.98908  0.00604  1.0000
  C   C2        1.0  0.16193  0.99826  0.99603  1.0000
  C   C3        1.0  0.19430  0.97290  0.01835  1.0000
  C   C4        1.0  0.23972  0.97965  0.01032  1.0000
  C   C5        1.0  0.25315  0.01184  0.97975  1.0000
  C   C6        1.0  0.22107  0.03683  0.95758  1.0000
  F   F1        1.0  0.23409  0.06772  0.92807  1.0000
  C   C7        1.0  0.17575  0.03036  0.96536  1.0000
  C   C8        1.0  0.03622  0.99296  0.00557  1.0000
  C   C9        1.0  0.02926  0.94719  0.01050  1.0000
  C   C10       1.0  0.98776  0.93161  0.02462  1.0000
  C   C11       1.0  0.95288  0.96159  0.03359  1.0000
  C   C12       1.0  0.95901  0.00772  0.02824  1.0000
  C   C13       1.0  0.00121  0.02277  0.01401  1.0000
  C   C14       1.0  0.92323  0.04203  0.03666  1.0000
  C   C15       1.0  0.88759  0.05023  0.00005  1.0000
  C   C16       1.0  0.89695  0.03150  0.95301  1.0000
  C   C17       1.0  0.87181  0.98914  0.93996  1.0000
  O   O2        1.0  0.87984  0.95228  0.96868  1.0000
  N   N2        1.0  0.86454  0.95998  0.01331  1.0000
  C   C18       1.0  0.82911  0.99081  0.02570  1.0000
  C   C19       1.0  0.84029  0.03962  0.01677  1.0000
  S   S1        1.0  0.90059  0.93868  0.05085  1.0000
  O   O3        1.0  0.89132  0.95685  0.09462  1.0000
  O   O4        1.0  0.90290  0.89090  0.04390  1.0000
  H   H1        1.0  0.11167  0.96499  0.02906  1.0000
  H   H2        1.0  0.18467  0.94755  0.04240  1.0000
  H   H3        1.0  0.26447  0.95984  0.02788  1.0000
  H   H4        1.0  0.28821  0.01764  0.97299  1.0000
  H   H5        1.0  0.15247  0.05084  0.94683  1.0000
  H   H6        1.0  0.05519  0.92320  0.00249  1.0000
  H   H7        1.0  0.98266  0.89583  0.02811  1.0000
  H   H8        1.0  0.00709  0.05833  0.00922  1.0000
  H   H9        1.0  0.90753  0.03553  0.06901  1.0000
  H   H10       1.0  0.94004  0.07412  0.04243  1.0000
  H   H11       1.0  0.88769  0.08670  0.99574  1.0000
  H   H12       1.0  0.93271  0.02662  0.94780  1.0000
  H   H13       1.0  0.88728  0.05717  0.92874  1.0000
  H   H14       1.0  0.83588  0.99499  0.93682  1.0000
  H   H15       1.0  0.88300  0.97900  0.90669  1.0000
  H   H16       1.0  0.82018  0.98648  0.06084  1.0000
  H   H17       1.0  0.79888  0.98152  0.00735  1.0000
  H   H18       1.0  0.81617  0.05272  0.99253  1.0000
  H   H19       1.0  0.83382  0.05874  0.04731  1.0000
