data_image0
_chemical_formula_structural       OC2NC6SC5BrCSH14
_chemical_formula_sum              "O1 C14 N1 S2 Br1 H14"
_cell_length_a       30
_cell_length_b       30
_cell_length_c       30
_cell_angle_alpha    90
_cell_angle_beta     90
_cell_angle_gamma    90

_space_group_name_H-M_alt    "P 1"
_space_group_IT_number       1

loop_
  _space_group_symop_operation_xyz
  'x, y, z'

loop_
  _atom_site_type_symbol
  _atom_site_label
  _atom_site_symmetry_multiplicity
  _atom_site_fract_x
  _atom_site_fract_y
  _atom_site_fract_z
  _atom_site_occupancy
  O   O1        1.0  0.03882  0.99602  0.92454  1.0000
  C   C1        1.0  0.05020  0.99587  0.96402  1.0000
  C   C2        1.0  0.02623  0.96691  0.99913  1.0000
  N   N1        1.0  0.98323  0.94896  0.98389  1.0000
  C   C3        1.0  0.96284  0.91877  0.01606  1.0000
  C   C4        1.0  0.91505  0.91363  0.99995  1.0000
  C   C5        1.0  0.90681  0.95253  0.96822  1.0000
  C   C6        1.0  0.94894  0.98121  0.97001  1.0000
  C   C7        1.0  0.94529  0.02127  0.00062  1.0000
  C   C8        1.0  0.92624  0.02264  0.04267  1.0000
  S   S1        1.0  0.92925  0.07406  0.06708  1.0000
  C   C9        1.0  0.95523  0.09613  0.02157  1.0000
  C   C10       1.0  0.96158  0.06483  0.98864  1.0000
  C   C11       1.0  0.08759  0.02252  0.98072  1.0000
  C   C12       1.0  0.10702  0.02349  0.02260  1.0000
  C   C13       1.0  0.14259  0.05454  0.02482  1.0000
  Br  Br1       1.0  0.17557  0.06352  0.07757  1.0000
  C   C14       1.0  0.15000  0.07651  0.98548  1.0000
  S   S2        1.0  0.11347  0.05944  0.94522  1.0000
  H   H1        1.0  0.04870  0.93897  0.00636  1.0000
  H   H2        1.0  0.02193  0.98606  0.02993  1.0000
  H   H3        1.0  0.96319  0.93251  0.04993  1.0000
  H   H4        1.0  0.97993  0.88653  0.01695  1.0000
  H   H5        1.0  0.91048  0.88197  0.98229  1.0000
  H   H6        1.0  0.89164  0.91419  0.02796  1.0000
  H   H7        1.0  0.87631  0.97069  0.97678  1.0000
  H   H8        1.0  0.90234  0.93919  0.93444  1.0000
  H   H9        1.0  0.95579  0.99322  0.93617  1.0000
  H   H10       1.0  0.91059  0.99570  0.06076  1.0000
  H   H11       1.0  0.96450  0.13097  0.02097  1.0000
  H   H12       1.0  0.97744  0.07254  0.95705  1.0000
  H   H13       1.0  0.09640  0.00303  0.05038  1.0000
  H   H14       1.0  0.17482  0.10159  0.97813  1.0000
