data_image0
_chemical_formula_structural       OCFNC2OC9H14
_chemical_formula_sum              "O2 C12 F1 N1 H14"
_cell_length_a       30
_cell_length_b       30
_cell_length_c       30
_cell_angle_alpha    90
_cell_angle_beta     90
_cell_angle_gamma    90

_space_group_name_H-M_alt    "P 1"
_space_group_IT_number       1

loop_
  _space_group_symop_operation_xyz
  'x, y, z'

loop_
  _atom_site_type_symbol
  _atom_site_label
  _atom_site_symmetry_multiplicity
  _atom_site_fract_x
  _atom_site_fract_y
  _atom_site_fract_z
  _atom_site_occupancy
  O   O1        1.0  0.85871  0.06256  0.06770  1.0000
  C   C1        1.0  0.88594  0.07838  0.04198  1.0000
  F   F1        1.0  0.87789  0.11932  0.02626  1.0000
  N   N1        1.0  0.92436  0.05880  0.02785  1.0000
  C   C2        1.0  0.94082  0.01783  0.04768  1.0000
  C   C3        1.0  0.97575  0.99379  0.01845  1.0000
  O   O2        1.0  0.01089  0.02539  0.01061  1.0000
  C   C4        1.0  0.05301  0.01085  0.00149  1.0000
  C   C5        1.0  0.08198  0.04426  0.98668  1.0000
  C   C6        1.0  0.12628  0.03456  0.97625  1.0000
  C   C7        1.0  0.14207  0.99118  0.98078  1.0000
  C   C8        1.0  0.11355  0.95776  0.99581  1.0000
  C   C9        1.0  0.06915  0.96756  0.00625  1.0000
  C   C10       1.0  0.95577  0.97969  0.97446  1.0000
  C   C11       1.0  0.96828  0.93615  0.95252  1.0000
  C   C12       1.0  0.92265  0.94183  0.97230  1.0000
  H   H1        1.0  0.94634  0.07880  0.01191  1.0000
  H   H2        1.0  0.95600  0.02740  0.07951  1.0000
  H   H3        1.0  0.91252  0.99588  0.05487  1.0000
  H   H4        1.0  0.98728  0.96512  0.03788  1.0000
  H   H5        1.0  0.06989  0.07823  0.98309  1.0000
  H   H6        1.0  0.14833  0.06085  0.96466  1.0000
  H   H7        1.0  0.17653  0.98344  0.97273  1.0000
  H   H8        1.0  0.12589  0.92389  0.99956  1.0000
  H   H9        1.0  0.04851  0.94046  0.01820  1.0000
  H   H10       1.0  0.94978  0.00799  0.95272  1.0000
  H   H11       1.0  0.97129  0.93583  0.91649  1.0000
  H   H12       1.0  0.99092  0.91353  0.96921  1.0000
  H   H13       1.0  0.91496  0.92345  0.00245  1.0000
  H   H14       1.0  0.89466  0.94522  0.94966  1.0000
