data_image0
_chemical_formula_structural       OCN2COC7ONC2NC11H30
_chemical_formula_sum              "O3 C22 N4 H30"
_cell_length_a       30
_cell_length_b       30
_cell_length_c       30
_cell_angle_alpha    90
_cell_angle_beta     90
_cell_angle_gamma    90

_space_group_name_H-M_alt    "P 1"
_space_group_IT_number       1

loop_
  _space_group_symop_operation_xyz
  'x, y, z'

loop_
  _atom_site_type_symbol
  _atom_site_label
  _atom_site_symmetry_multiplicity
  _atom_site_fract_x
  _atom_site_fract_y
  _atom_site_fract_z
  _atom_site_occupancy
  O   O1        1.0  0.80178  0.03493  0.99835  1.0000
  C   C1        1.0  0.82750  0.04633  0.96863  1.0000
  N   N1        1.0  0.86227  0.02021  0.95381  1.0000
  N   N2        1.0  0.87294  0.98214  0.97896  1.0000
  C   C2        1.0  0.91753  0.97082  0.98155  1.0000
  O   O2        1.0  0.94598  0.98800  0.95750  1.0000
  C   C3        1.0  0.92753  0.93416  0.01539  1.0000
  C   C4        1.0  0.90919  0.88966  0.99793  1.0000
  C   C5        1.0  0.92102  0.85083  0.02851  1.0000
  C   C6        1.0  0.97107  0.84807  0.03660  1.0000
  C   C7        1.0  0.98932  0.89188  0.05476  1.0000
  C   C8        1.0  0.97823  0.93136  0.02408  1.0000
  C   C9        1.0  0.99457  0.97432  0.04641  1.0000
  O   O3        1.0  0.96924  0.99576  0.07068  1.0000
  N   N3        1.0  0.03869  0.98658  0.04032  1.0000
  C   C10       1.0  0.06915  0.96585  0.00811  1.0000
  C   C11       1.0  0.11818  0.98007  0.01393  1.0000
  N   N4        1.0  0.12300  0.02884  0.01337  1.0000
  C   C12       1.0  0.16270  0.04917  0.00123  1.0000
  C   C13       1.0  0.20338  0.02598  0.00080  1.0000
  C   C14       1.0  0.24350  0.04649  0.98850  1.0000
  C   C15       1.0  0.24397  0.09110  0.97610  1.0000
  C   C16       1.0  0.20434  0.11502  0.97606  1.0000
  C   C17       1.0  0.16441  0.09421  0.98846  1.0000
  C   C18       1.0  0.08487  0.05534  0.02954  1.0000
  C   C19       1.0  0.05467  0.02801  0.06078  1.0000
  C   C20       1.0  0.82387  0.09045  0.94618  1.0000
  C   C21       1.0  0.77972  0.11464  0.94454  1.0000
  C   C22       1.0  0.81652  0.13197  0.97374  1.0000
  H   H1        1.0  0.88759  0.03308  0.93520  1.0000
  H   H2        1.0  0.85212  0.97606  0.00518  1.0000
  H   H3        1.0  0.91010  0.94257  0.04649  1.0000
  H   H4        1.0  0.92237  0.88316  0.96441  1.0000
  H   H5        1.0  0.87284  0.89142  0.99442  1.0000
  H   H6        1.0  0.90367  0.85478  0.06045  1.0000
  H   H7        1.0  0.90920  0.81956  0.01379  1.0000
  H   H8        1.0  0.97822  0.82109  0.06017  1.0000
  H   H9        1.0  0.98814  0.83975  0.00535  1.0000
  H   H10       1.0  0.97539  0.89784  0.08809  1.0000
  H   H11       1.0  0.02543  0.88888  0.05940  1.0000
  H   H12       1.0  0.99505  0.92687  0.99197  1.0000
  H   H13       1.0  0.06685  0.92956  0.01056  1.0000
  H   H14       1.0  0.05739  0.97550  0.97485  1.0000
  H   H15       1.0  0.13723  0.96471  0.98678  1.0000
  H   H16       1.0  0.13101  0.96716  0.04563  1.0000
  H   H17       1.0  0.20493  0.99126  0.01093  1.0000
  H   H18       1.0  0.27431  0.02744  0.98888  1.0000
  H   H19       1.0  0.27502  0.10711  0.96655  1.0000
  H   H20       1.0  0.20418  0.14989  0.96626  1.0000
  H   H21       1.0  0.13417  0.11408  0.98711  1.0000
  H   H22       1.0  0.06547  0.06689  0.00077  1.0000
  H   H23       1.0  0.09627  0.08461  0.04823  1.0000
  H   H24       1.0  0.02677  0.04876  0.07184  1.0000
  H   H25       1.0  0.07344  0.01817  0.09058  1.0000
  H   H26       1.0  0.84483  0.09437  0.91689  1.0000
  H   H27       1.0  0.75113  0.09944  0.96069  1.0000
  H   H28       1.0  0.77164  0.13314  0.91459  1.0000
  H   H29       1.0  0.81263  0.12841  0.00955  1.0000
  H   H30       1.0  0.83346  0.16224  0.96364  1.0000
