data_image0
_chemical_formula_structural       OC2NCN4C10H11
_chemical_formula_sum              "O1 C13 N5 H11"
_cell_length_a       30
_cell_length_b       30
_cell_length_c       30
_cell_angle_alpha    90
_cell_angle_beta     90
_cell_angle_gamma    90

_space_group_name_H-M_alt    "P 1"
_space_group_IT_number       1

loop_
  _space_group_symop_operation_xyz
  'x, y, z'

loop_
  _atom_site_type_symbol
  _atom_site_label
  _atom_site_symmetry_multiplicity
  _atom_site_fract_x
  _atom_site_fract_y
  _atom_site_fract_z
  _atom_site_occupancy
  O   O1        1.0  0.07244  0.97385  0.07746  1.0000
  C   C1        1.0  0.06834  0.97325  0.03672  1.0000
  C   C2        1.0  0.10846  0.96307  0.00789  1.0000
  N   N1        1.0  0.11670  0.99822  0.97637  1.0000
  C   C3        1.0  0.14433  0.03380  0.97977  1.0000
  N   N2        1.0  0.14046  0.05760  0.94323  1.0000
  N   N3        1.0  0.10956  0.03591  0.91720  1.0000
  N   N4        1.0  0.09472  0.99946  0.93734  1.0000
  N   N5        1.0  0.02940  0.97995  0.01277  1.0000
  C   C4        1.0  0.98568  0.98760  0.02929  1.0000
  C   C5        1.0  0.97593  0.98302  0.07473  1.0000
  C   C6        1.0  0.93286  0.98959  0.09070  1.0000
  C   C7        1.0  0.89875  0.00074  0.06144  1.0000
  C   C8        1.0  0.90709  0.00568  0.01580  1.0000
  C   C9        1.0  0.87176  0.01707  0.98723  1.0000
  C   C10       1.0  0.87856  0.02264  0.94168  1.0000
  C   C11       1.0  0.92091  0.01699  0.92411  1.0000
  C   C12       1.0  0.95642  0.00559  0.95209  1.0000
  C   C13       1.0  0.95083  0.99932  0.99873  1.0000
  H   H1        1.0  0.13812  0.95944  0.02885  1.0000
  H   H2        1.0  0.10321  0.93184  0.98976  1.0000
  H   H3        1.0  0.16547  0.04083  0.00805  1.0000
  H   H4        1.0  0.03292  0.98207  0.97921  1.0000
  H   H5        1.0  0.00117  0.97382  0.09894  1.0000
  H   H6        1.0  0.92597  0.98584  0.12608  1.0000
  H   H7        1.0  0.86536  0.00564  0.07474  1.0000
  H   H8        1.0  0.83831  0.02185  0.00044  1.0000
  H   H9        1.0  0.85087  0.03155  0.92009  1.0000
  H   H10       1.0  0.92662  0.02158  0.88862  1.0000
  H   H11       1.0  0.98876  0.00220  0.93619  1.0000
