data_image0
_chemical_formula_structural       OC8FNC6F3CH17
_chemical_formula_sum              "O1 C15 F4 N1 H17"
_cell_length_a       30
_cell_length_b       30
_cell_length_c       30
_cell_angle_alpha    90
_cell_angle_beta     90
_cell_angle_gamma    90

_space_group_name_H-M_alt    "P 1"
_space_group_IT_number       1

loop_
  _space_group_symop_operation_xyz
  'x, y, z'

loop_
  _atom_site_type_symbol
  _atom_site_label
  _atom_site_symmetry_multiplicity
  _atom_site_fract_x
  _atom_site_fract_y
  _atom_site_fract_z
  _atom_site_occupancy
  O   O1        1.0  0.00364  0.08434  0.99877  1.0000
  C   C1        1.0  0.02137  0.05516  0.97623  1.0000
  C   C2        1.0  0.06916  0.05866  0.96011  1.0000
  C   C3        1.0  0.10133  0.03617  0.99135  1.0000
  C   C4        1.0  0.12462  0.06060  0.02360  1.0000
  C   C5        1.0  0.15390  0.03908  0.05275  1.0000
  C   C6        1.0  0.16000  0.99304  0.05013  1.0000
  C   C7        1.0  0.13665  0.96839  0.01843  1.0000
  C   C8        1.0  0.10755  0.99003  0.98953  1.0000
  F   F1        1.0  0.08471  0.96584  0.95963  1.0000
  N   N1        1.0  0.00011  0.01632  0.96357  1.0000
  C   C9        1.0  0.95587  0.00511  0.98007  1.0000
  C   C10       1.0  0.93401  0.97094  0.94909  1.0000
  C   C11       1.0  0.88870  0.95569  0.96634  1.0000
  C   C12       1.0  0.89164  0.93820  0.01404  1.0000
  C   C13       1.0  0.91380  0.97100  0.04653  1.0000
  C   C14       1.0  0.88298  0.00948  0.05913  1.0000
  F   F2        1.0  0.87164  0.03490  0.02391  1.0000
  F   F3        1.0  0.84481  0.99376  0.07733  1.0000
  F   F4        1.0  0.90230  0.03615  0.08983  1.0000
  C   C15       1.0  0.95867  0.98730  0.02802  1.0000
  H   H1        1.0  0.07197  0.04431  0.92659  1.0000
  H   H2        1.0  0.07742  0.09408  0.95636  1.0000
  H   H3        1.0  0.11994  0.09647  0.02640  1.0000
  H   H4        1.0  0.17186  0.05832  0.07770  1.0000
  H   H5        1.0  0.18276  0.97644  0.07292  1.0000
  H   H6        1.0  0.14085  0.93253  0.01619  1.0000
  H   H7        1.0  0.01986  0.99102  0.95278  1.0000
  H   H8        1.0  0.93613  0.03585  0.97975  1.0000
  H   H9        1.0  0.95584  0.94179  0.94538  1.0000
  H   H10       1.0  0.93018  0.98515  0.91561  1.0000
  H   H11       1.0  0.86488  0.98330  0.96450  1.0000
  H   H12       1.0  0.87570  0.92936  0.94459  1.0000
  H   H13       1.0  0.85826  0.92917  0.02585  1.0000
  H   H14       1.0  0.91113  0.90722  0.01378  1.0000
  H   H15       1.0  0.92066  0.95278  0.07752  1.0000
  H   H16       1.0  0.98231  0.95932  0.02881  1.0000
  H   H17       1.0  0.97279  0.01272  0.05019  1.0000
