data_image0
_chemical_formula_structural       OCNC5F3C6BrNCH8
_chemical_formula_sum              "O1 C13 N2 F3 Br1 H8"
_cell_length_a       30
_cell_length_b       30
_cell_length_c       30
_cell_angle_alpha    90
_cell_angle_beta     90
_cell_angle_gamma    90

_space_group_name_H-M_alt    "P 1"
_space_group_IT_number       1

loop_
  _space_group_symop_operation_xyz
  'x, y, z'

loop_
  _atom_site_type_symbol
  _atom_site_label
  _atom_site_symmetry_multiplicity
  _atom_site_fract_x
  _atom_site_fract_y
  _atom_site_fract_z
  _atom_site_occupancy
  O   O1        1.0  0.03999  0.02396  0.94174  1.0000
  C   C1        1.0  0.04550  0.01164  0.98028  1.0000
  N   N1        1.0  0.01286  0.99888  0.01027  1.0000
  C   C2        1.0  0.96675  0.99456  0.00188  1.0000
  C   C3        1.0  0.94733  0.99961  0.95992  1.0000
  C   C4        1.0  0.90126  0.99456  0.95432  1.0000
  C   C5        1.0  0.87376  0.98404  0.99057  1.0000
  C   C6        1.0  0.82404  0.97938  0.98463  1.0000
  F   F1        1.0  0.80548  0.94956  0.01345  1.0000
  F   F2        1.0  0.81216  0.96542  0.94309  1.0000
  F   F3        1.0  0.80211  0.01852  0.99143  1.0000
  C   C7        1.0  0.89331  0.97912  0.03270  1.0000
  C   C8        1.0  0.93934  0.98418  0.03821  1.0000
  C   C9        1.0  0.09166  0.01150  0.99791  1.0000
  C   C10       1.0  0.12206  0.04367  0.98356  1.0000
  C   C11       1.0  0.16547  0.04316  0.00020  1.0000
  C   C12       1.0  0.17702  0.01020  0.03055  1.0000
  Br  Br1       1.0  0.23579  0.00926  0.05373  1.0000
  N   N2        1.0  0.14845  0.97829  0.04465  1.0000
  C   C13       1.0  0.10662  0.97935  0.02764  1.0000
  H   H1        1.0  0.02203  0.99444  0.04244  1.0000
  H   H2        1.0  0.96708  0.00744  0.93061  1.0000
  H   H3        1.0  0.88703  0.99887  0.92118  1.0000
  H   H4        1.0  0.87271  0.97124  0.06154  1.0000
  H   H5        1.0  0.95326  0.97999  0.07141  1.0000
  H   H6        1.0  0.11205  0.06897  0.95957  1.0000
  H   H7        1.0  0.18944  0.06802  0.98944  1.0000
  H   H8        1.0  0.08543  0.95217  0.03876  1.0000
