data_image0
_chemical_formula_structural       OC2NCONC6NC3ClC2ClCH15
_chemical_formula_sum              "O2 C15 N3 Cl2 H15"
_cell_length_a       30
_cell_length_b       30
_cell_length_c       30
_cell_angle_alpha    90
_cell_angle_beta     90
_cell_angle_gamma    90

_space_group_name_H-M_alt    "P 1"
_space_group_IT_number       1

loop_
  _space_group_symop_operation_xyz
  'x, y, z'

loop_
  _atom_site_type_symbol
  _atom_site_label
  _atom_site_symmetry_multiplicity
  _atom_site_fract_x
  _atom_site_fract_y
  _atom_site_fract_z
  _atom_site_occupancy
  O   O1        1.0  0.05687  0.04979  0.02069  1.0000
  C   C1        1.0  0.06396  0.01455  0.00071  1.0000
  C   C2        1.0  0.02658  0.98676  0.98069  1.0000
  N   N1        1.0  0.98927  0.98709  0.01105  1.0000
  C   C3        1.0  0.98453  0.95356  0.04254  1.0000
  O   O2        1.0  0.01524  0.93186  0.05820  1.0000
  N   N2        1.0  0.93987  0.94642  0.05028  1.0000
  C   C4        1.0  0.91918  0.97212  0.02193  1.0000
  C   C5        1.0  0.86907  0.97187  0.01863  1.0000
  C   C6        1.0  0.85354  0.98830  0.97313  1.0000
  C   C7        1.0  0.85698  0.03879  0.96662  1.0000
  C   C8        1.0  0.89151  0.06261  0.99549  1.0000
  C   C9        1.0  0.93957  0.04668  0.99002  1.0000
  N   N3        1.0  0.94617  0.99837  0.99510  1.0000
  C   C10       1.0  0.11102  0.99973  0.99472  1.0000
  C   C11       1.0  0.14319  0.01630  0.02434  1.0000
  C   C12       1.0  0.18776  0.00405  0.01948  1.0000
  Cl  Cl1       1.0  0.22715  0.02483  0.05577  1.0000
  C   C13       1.0  0.20084  0.97558  0.98521  1.0000
  C   C14       1.0  0.16883  0.95933  0.95572  1.0000
  Cl  Cl2       1.0  0.18479  0.92479  0.91272  1.0000
  C   C15       1.0  0.12401  0.97124  0.96009  1.0000
  H   H1        1.0  0.01706  0.00146  0.94879  1.0000
  H   H2        1.0  0.03693  0.95226  0.97559  1.0000
  H   H3        1.0  0.85482  0.99151  0.04596  1.0000
  H   H4        1.0  0.85808  0.93729  0.02319  1.0000
  H   H5        1.0  0.81884  0.97828  0.96783  1.0000
  H   H6        1.0  0.87280  0.97154  0.94693  1.0000
  H   H7        1.0  0.82436  0.05345  0.97390  1.0000
  H   H8        1.0  0.86350  0.04581  0.93138  1.0000
  H   H9        1.0  0.88181  0.06035  0.03075  1.0000
  H   H10       1.0  0.89037  0.09828  0.98747  1.0000
  H   H11       1.0  0.95197  0.05649  0.95688  1.0000
  H   H12       1.0  0.96002  0.06468  0.01470  1.0000
  H   H13       1.0  0.13352  0.03886  0.05113  1.0000
  H   H14       1.0  0.23577  0.96654  0.98131  1.0000
  H   H15       1.0  0.10023  0.95857  0.93587  1.0000
