data_image0
_chemical_formula_structural       OCNC4NC4NC9H25
_chemical_formula_sum              "O1 C18 N3 H25"
_cell_length_a       30
_cell_length_b       30
_cell_length_c       30
_cell_angle_alpha    90
_cell_angle_beta     90
_cell_angle_gamma    90

_space_group_name_H-M_alt    "P 1"
_space_group_IT_number       1

loop_
  _space_group_symop_operation_xyz
  'x, y, z'

loop_
  _atom_site_type_symbol
  _atom_site_label
  _atom_site_symmetry_multiplicity
  _atom_site_fract_x
  _atom_site_fract_y
  _atom_site_fract_z
  _atom_site_occupancy
  O   O1        1.0  0.03167  0.07640  0.99067  1.0000
  C   C1        1.0  0.02269  0.03680  0.98714  1.0000
  N   N1        1.0  0.97987  0.02170  0.97866  1.0000
  C   C2        1.0  0.94458  0.05401  0.97144  1.0000
  C   C3        1.0  0.89869  0.03226  0.97196  1.0000
  C   C4        1.0  0.86106  0.06466  0.96060  1.0000
  C   C5        1.0  0.82335  0.05347  0.99288  1.0000
  N   N2        1.0  0.83647  0.01259  0.01652  1.0000
  C   C6        1.0  0.81903  0.97198  0.99505  1.0000
  C   C7        1.0  0.77367  0.95534  0.00851  1.0000
  C   C8        1.0  0.81457  0.93013  0.02233  1.0000
  C   C9        1.0  0.88550  0.01417  0.01758  1.0000
  N   N3        1.0  0.05151  0.00127  0.99111  1.0000
  C   C10       1.0  0.09814  0.00260  0.99670  1.0000
  C   C11       1.0  0.12354  0.04177  0.99288  1.0000
  C   C12       1.0  0.16991  0.04105  0.99821  1.0000
  C   C13       1.0  0.19037  0.00086  0.00764  1.0000
  C   C14       1.0  0.23904  0.99168  0.01347  1.0000
  C   C15       1.0  0.23780  0.94581  0.03615  1.0000
  C   C16       1.0  0.19517  0.92256  0.01993  1.0000
  C   C17       1.0  0.16548  0.96170  0.01130  1.0000
  C   C18       1.0  0.11960  0.96202  0.00566  1.0000
  H   H1        1.0  0.97917  0.99461  0.95868  1.0000
  H   H2        1.0  0.95082  0.06972  0.93903  1.0000
  H   H3        1.0  0.94701  0.08012  0.99690  1.0000
  H   H4        1.0  0.89821  0.00489  0.94762  1.0000
  H   H5        1.0  0.87116  0.09954  0.96456  1.0000
  H   H6        1.0  0.85052  0.05995  0.92595  1.0000
  H   H7        1.0  0.81991  0.08044  0.01732  1.0000
  H   H8        1.0  0.79115  0.05056  0.97588  1.0000
  H   H9        1.0  0.82781  0.96749  0.96013  1.0000
  H   H10       1.0  0.75268  0.94097  0.98288  1.0000
  H   H11       1.0  0.75565  0.97349  0.03403  1.0000
  H   H12       1.0  0.82137  0.89860  0.00612  1.0000
  H   H13       1.0  0.82404  0.93129  0.05718  1.0000
  H   H14       1.0  0.89595  0.03684  0.04431  1.0000
  H   H15       1.0  0.90052  0.98161  0.02454  1.0000
  H   H16       1.0  0.03671  0.97145  0.99577  1.0000
  H   H17       1.0  0.10796  0.07358  0.98539  1.0000
  H   H18       1.0  0.18909  0.07155  0.99490  1.0000
  H   H19       1.0  0.25548  0.98988  0.98094  1.0000
  H   H20       1.0  0.25553  0.01647  0.03450  1.0000
  H   H21       1.0  0.23583  0.95045  0.07244  1.0000
  H   H22       1.0  0.26780  0.92615  0.02947  1.0000
  H   H23       1.0  0.18174  0.90016  0.04536  1.0000
  H   H24       1.0  0.20111  0.90423  0.98893  1.0000
  H   H25       1.0  0.10105  0.93109  0.00832  1.0000
