data_image0
_chemical_formula_structural       OCNCSNC5NC6OC7FH16
_chemical_formula_sum              "O2 C20 N3 S1 F1 H16"
_cell_length_a       30
_cell_length_b       30
_cell_length_c       30
_cell_angle_alpha    90
_cell_angle_beta     90
_cell_angle_gamma    90

_space_group_name_H-M_alt    "P 1"
_space_group_IT_number       1

loop_
  _space_group_symop_operation_xyz
  'x, y, z'

loop_
  _atom_site_type_symbol
  _atom_site_label
  _atom_site_symmetry_multiplicity
  _atom_site_fract_x
  _atom_site_fract_y
  _atom_site_fract_z
  _atom_site_occupancy
  O   O1        1.0  0.93706  0.94413  0.95145  1.0000
  C   C1        1.0  0.96801  0.97000  0.95868  1.0000
  N   N1        1.0  0.96487  0.00437  0.98949  1.0000
  C   C2        1.0  0.92996  0.01657  0.01724  1.0000
  S   S1        1.0  0.93999  0.06041  0.05014  1.0000
  N   N2        1.0  0.89260  0.99073  0.01355  1.0000
  C   C3        1.0  0.85066  0.99029  0.03386  1.0000
  C   C4        1.0  0.83578  0.01979  0.06616  1.0000
  C   C5        1.0  0.79274  0.01492  0.08324  1.0000
  C   C6        1.0  0.76569  0.98082  0.06770  1.0000
  C   C7        1.0  0.78298  0.95287  0.03551  1.0000
  N   N3        1.0  0.82448  0.95695  0.01852  1.0000
  C   C8        1.0  0.01140  0.96485  0.93418  1.0000
  C   C9        1.0  0.01486  0.92726  0.90629  1.0000
  C   C10       1.0  0.05371  0.91877  0.88231  1.0000
  C   C11       1.0  0.08961  0.94776  0.88595  1.0000
  C   C12       1.0  0.08675  0.98532  0.91337  1.0000
  C   C13       1.0  0.04784  0.99449  0.93759  1.0000
  O   O2        1.0  0.04284  0.03091  0.96479  1.0000
  C   C14       1.0  0.07828  0.06268  0.96910  1.0000
  C   C15       1.0  0.11165  0.04872  0.00386  1.0000
  C   C16       1.0  0.09796  0.03425  0.04617  1.0000
  C   C17       1.0  0.12944  0.02206  0.07826  1.0000
  C   C18       1.0  0.17485  0.02442  0.06858  1.0000
  C   C19       1.0  0.18882  0.03910  0.02679  1.0000
  C   C20       1.0  0.15729  0.05120  0.99499  1.0000
  F   F1        1.0  0.17141  0.06527  0.95498  1.0000
  H   H1        1.0  0.99211  0.02410  0.99263  1.0000
  H   H2        1.0  0.89477  0.96548  0.99082  1.0000
  H   H3        1.0  0.85591  0.04671  0.07895  1.0000
  H   H4        1.0  0.78062  0.03780  0.10857  1.0000
  H   H5        1.0  0.73215  0.97619  0.08029  1.0000
  H   H6        1.0  0.76345  0.92554  0.02198  1.0000
  H   H7        1.0  0.98705  0.90410  0.90320  1.0000
  H   H8        1.0  0.05587  0.88955  0.86098  1.0000
  H   H9        1.0  0.12009  0.94122  0.86743  1.0000
  H   H10       1.0  0.11597  0.00659  0.91491  1.0000
  H   H11       1.0  0.09315  0.07068  0.93671  1.0000
  H   H12       1.0  0.06291  0.09382  0.98058  1.0000
  H   H13       1.0  0.06269  0.03239  0.05445  1.0000
  H   H14       1.0  0.11845  0.01075  0.11092  1.0000
  H   H15       1.0  0.19926  0.01493  0.09362  1.0000
  H   H16       1.0  0.22405  0.04125  0.01882  1.0000
