data_image0
_chemical_formula_structural       OCOC4NCSNC4FC4FH10
_chemical_formula_sum              "O2 C14 N2 S1 F2 H10"
_cell_length_a       30
_cell_length_b       30
_cell_length_c       30
_cell_angle_alpha    90
_cell_angle_beta     90
_cell_angle_gamma    90

_space_group_name_H-M_alt    "P 1"
_space_group_IT_number       1

loop_
  _space_group_symop_operation_xyz
  'x, y, z'

loop_
  _atom_site_type_symbol
  _atom_site_label
  _atom_site_symmetry_multiplicity
  _atom_site_fract_x
  _atom_site_fract_y
  _atom_site_fract_z
  _atom_site_occupancy
  O   O1        1.0  0.77558  0.95430  0.01967  1.0000
  C   C1        1.0  0.79977  0.98650  0.01527  1.0000
  O   O2        1.0  0.78234  0.02767  0.01111  1.0000
  C   C2        1.0  0.84910  0.98690  0.01378  1.0000
  C   C3        1.0  0.87330  0.02651  0.00894  1.0000
  C   C4        1.0  0.92003  0.02574  0.00771  1.0000
  C   C5        1.0  0.94325  0.98553  0.01067  1.0000
  N   N1        1.0  0.99019  0.98197  0.01072  1.0000
  C   C6        1.0  0.02319  0.00996  0.99324  1.0000
  S   S1        1.0  0.01545  0.05029  0.95556  1.0000
  N   N2        1.0  0.06375  0.99809  0.01297  1.0000
  C   C7        1.0  0.10821  0.00746  0.00065  1.0000
  C   C8        1.0  0.14058  0.00457  0.03431  1.0000
  C   C9        1.0  0.18551  0.01239  0.02483  1.0000
  C   C10       1.0  0.19821  0.02252  0.98153  1.0000
  F   F1        1.0  0.24126  0.02988  0.97233  1.0000
  C   C11       1.0  0.16686  0.02462  0.94758  1.0000
  C   C12       1.0  0.12188  0.01680  0.95710  1.0000
  C   C13       1.0  0.91896  0.94616  0.01649  1.0000
  C   C14       1.0  0.87242  0.94696  0.01770  1.0000
  F   F2        1.0  0.85116  0.90801  0.02290  1.0000
  H   H1        1.0  0.75008  0.02254  0.01245  1.0000
  H   H2        1.0  0.85631  0.05845  0.00638  1.0000
  H   H3        1.0  0.93720  0.05753  0.00555  1.0000
  H   H4        1.0  0.00211  0.95126  0.01826  1.0000
  H   H5        1.0  0.05998  0.98684  0.04459  1.0000
  H   H6        1.0  0.13128  0.99677  0.06845  1.0000
  H   H7        1.0  0.21055  0.01063  0.05089  1.0000
  H   H8        1.0  0.17747  0.03198  0.91378  1.0000
  H   H9        1.0  0.09859  0.01711  0.92944  1.0000
  H   H10       1.0  0.93541  0.91407  0.01963  1.0000
