data_image0
_chemical_formula_structural       OCNC6NC2FC4FH10
_chemical_formula_sum              "O1 C13 N2 F2 H10"
_cell_length_a       30
_cell_length_b       30
_cell_length_c       30
_cell_angle_alpha    90
_cell_angle_beta     90
_cell_angle_gamma    90

_space_group_name_H-M_alt    "P 1"
_space_group_IT_number       1

loop_
  _space_group_symop_operation_xyz
  'x, y, z'

loop_
  _atom_site_type_symbol
  _atom_site_label
  _atom_site_symmetry_multiplicity
  _atom_site_fract_x
  _atom_site_fract_y
  _atom_site_fract_z
  _atom_site_occupancy
  O   O1        1.0  0.97430  0.91853  0.96187  1.0000
  C   C1        1.0  0.96927  0.95533  0.97896  1.0000
  N   N1        1.0  0.00510  0.98109  0.99111  1.0000
  C   C2        1.0  0.05049  0.96662  0.98365  1.0000
  C   C3        1.0  0.08416  0.00022  0.00049  1.0000
  C   C4        1.0  0.12951  0.99060  0.99768  1.0000
  C   C5        1.0  0.16006  0.02194  0.01312  1.0000
  C   C6        1.0  0.14468  0.06188  0.03082  1.0000
  C   C7        1.0  0.09911  0.06896  0.03239  1.0000
  N   N2        1.0  0.06861  0.03926  0.01772  1.0000
  C   C8        1.0  0.92405  0.97376  0.98733  1.0000
  C   C9        1.0  0.88674  0.94607  0.98372  1.0000
  F   F1        1.0  0.89063  0.90272  0.97357  1.0000
  C   C10       1.0  0.84372  0.96235  0.99110  1.0000
  C   C11       1.0  0.83725  0.00693  0.00228  1.0000
  C   C12       1.0  0.87401  0.03500  0.00604  1.0000
  C   C13       1.0  0.91687  0.01838  0.99859  1.0000
  F   F2        1.0  0.95095  0.04708  0.00252  1.0000
  H   H1        1.0  0.00157  0.01237  0.00373  1.0000
  H   H2        1.0  0.05515  0.93466  0.00071  1.0000
  H   H3        1.0  0.05499  0.96153  0.94777  1.0000
  H   H4        1.0  0.14099  0.95925  0.98372  1.0000
  H   H5        1.0  0.19560  0.01522  0.01132  1.0000
  H   H6        1.0  0.16766  0.08693  0.04310  1.0000
  H   H7        1.0  0.08548  0.09966  0.04591  1.0000
  H   H8        1.0  0.81553  0.93980  0.98806  1.0000
  H   H9        1.0  0.80381  0.01967  0.00803  1.0000
  H   H10       1.0  0.86973  0.06990  0.01470  1.0000
