data_image0
_chemical_formula_structural       OCOC5NCOC4SC2H11
_chemical_formula_sum              "O3 C13 N1 S1 H11"
_cell_length_a       30
_cell_length_b       30
_cell_length_c       30
_cell_angle_alpha    90
_cell_angle_beta     90
_cell_angle_gamma    90

_space_group_name_H-M_alt    "P 1"
_space_group_IT_number       1

loop_
  _space_group_symop_operation_xyz
  'x, y, z'

loop_
  _atom_site_type_symbol
  _atom_site_label
  _atom_site_symmetry_multiplicity
  _atom_site_fract_x
  _atom_site_fract_y
  _atom_site_fract_z
  _atom_site_occupancy
  O   O1        1.0  0.81678  0.05185  0.02502  1.0000
  C   C1        1.0  0.83962  0.04370  0.99250  1.0000
  O   O2        1.0  0.82835  0.05869  0.95179  1.0000
  C   C2        1.0  0.88145  0.01737  0.99240  1.0000
  C   C3        1.0  0.90604  0.01004  0.95346  1.0000
  C   C4        1.0  0.94532  0.98503  0.95501  1.0000
  C   C5        1.0  0.96035  0.96685  0.99537  1.0000
  C   C6        1.0  0.00321  0.94077  0.99694  1.0000
  N   N1        1.0  0.04097  0.97044  0.99935  1.0000
  C   C7        1.0  0.08384  0.95386  0.99636  1.0000
  O   O3        1.0  0.09041  0.91414  0.98872  1.0000
  C   C8        1.0  0.11901  0.98667  0.00349  1.0000
  C   C9        1.0  0.11710  0.03280  0.00423  1.0000
  C   C10       1.0  0.15947  0.05280  0.01244  1.0000
  C   C11       1.0  0.19252  0.02144  0.01752  1.0000
  S   S1        1.0  0.17260  0.96837  0.01219  1.0000
  C   C12       1.0  0.93575  0.97457  0.03433  1.0000
  C   C13       1.0  0.89647  0.99958  0.03284  1.0000
  H   H1        1.0  0.80051  0.07502  0.95691  1.0000
  H   H2        1.0  0.89499  0.02366  0.92174  1.0000
  H   H3        1.0  0.96423  0.97975  0.92448  1.0000
  H   H4        1.0  0.00403  0.91876  0.02611  1.0000
  H   H5        1.0  0.00633  0.91946  0.96741  1.0000
  H   H6        1.0  0.03617  0.00083  0.01292  1.0000
  H   H7        1.0  0.08699  0.05191  0.99869  1.0000
  H   H8        1.0  0.16539  0.08837  0.01429  1.0000
  H   H9        1.0  0.22756  0.02705  0.02389  1.0000
  H   H10       1.0  0.94690  0.96108  0.06611  1.0000
  H   H11       1.0  0.87762  0.00512  0.06335  1.0000
