data_image0
_chemical_formula_structural       OCNC3ONC2F3C3FC2BrC2FH10
_chemical_formula_sum              "O2 C13 N2 F5 Br1 H10"
_cell_length_a       30
_cell_length_b       30
_cell_length_c       30
_cell_angle_alpha    90
_cell_angle_beta     90
_cell_angle_gamma    90

_space_group_name_H-M_alt    "P 1"
_space_group_IT_number       1

loop_
  _space_group_symop_operation_xyz
  'x, y, z'

loop_
  _atom_site_type_symbol
  _atom_site_label
  _atom_site_symmetry_multiplicity
  _atom_site_fract_x
  _atom_site_fract_y
  _atom_site_fract_z
  _atom_site_occupancy
  O   O1        1.0  0.04153  0.95514  0.03607  1.0000
  C   C1        1.0  0.04954  0.98308  0.00737  1.0000
  N   N1        1.0  0.01770  0.99566  0.97651  1.0000
  C   C2        1.0  0.97515  0.97260  0.97377  1.0000
  C   C3        1.0  0.94468  0.99206  0.93782  1.0000
  C   C4        1.0  0.89850  0.98218  0.95504  1.0000
  O   O2        1.0  0.86407  0.98641  0.93387  1.0000
  N   N2        1.0  0.90178  0.96938  0.99930  1.0000
  C   C5        1.0  0.86293  0.96786  0.02883  1.0000
  C   C6        1.0  0.84925  0.01247  0.04942  1.0000
  F   F1        1.0  0.84165  0.04416  0.01842  1.0000
  F   F2        1.0  0.81160  0.00784  0.07383  1.0000
  F   F3        1.0  0.88130  0.02797  0.07717  1.0000
  C   C7        1.0  0.94652  0.97541  0.01596  1.0000
  C   C8        1.0  0.09404  0.00472  0.00449  1.0000
  C   C9        1.0  0.12412  0.00069  0.03987  1.0000
  F   F4        1.0  0.11349  0.97838  0.07708  1.0000
  C   C10       1.0  0.16629  0.02030  0.03815  1.0000
  C   C11       1.0  0.17884  0.04435  0.00056  1.0000
  Br  Br1       1.0  0.23581  0.07099  0.99793  1.0000
  C   C12       1.0  0.14957  0.04890  0.96490  1.0000
  C   C13       1.0  0.10755  0.02910  0.96717  1.0000
  F   F5        1.0  0.08040  0.03412  0.93195  1.0000
  H   H1        1.0  0.02740  0.01438  0.95003  1.0000
  H   H2        1.0  0.98200  0.93745  0.96613  1.0000
  H   H3        1.0  0.95017  0.97605  0.90555  1.0000
  H   H4        1.0  0.94843  0.02822  0.93452  1.0000
  H   H5        1.0  0.83477  0.95504  0.00943  1.0000
  H   H6        1.0  0.87009  0.94364  0.05519  1.0000
  H   H7        1.0  0.94903  0.00820  0.03184  1.0000
  H   H8        1.0  0.95437  0.94930  0.04016  1.0000
  H   H9        1.0  0.18861  0.01643  0.06642  1.0000
  H   H10       1.0  0.15880  0.06754  0.93526  1.0000
