data_image0
_chemical_formula_structural       OCNC4NC6NC12NH22
_chemical_formula_sum              "O1 C23 N4 H22"
_cell_length_a       30
_cell_length_b       30
_cell_length_c       30
_cell_angle_alpha    90
_cell_angle_beta     90
_cell_angle_gamma    90

_space_group_name_H-M_alt    "P 1"
_space_group_IT_number       1

loop_
  _space_group_symop_operation_xyz
  'x, y, z'

loop_
  _atom_site_type_symbol
  _atom_site_label
  _atom_site_symmetry_multiplicity
  _atom_site_fract_x
  _atom_site_fract_y
  _atom_site_fract_z
  _atom_site_occupancy
  O   O1        1.0  0.98364  0.05555  0.99466  1.0000
  C   C1        1.0  0.98372  0.02245  0.01836  1.0000
  N   N1        1.0  0.02160  0.00158  0.03353  1.0000
  C   C2        1.0  0.06521  0.02033  0.02362  1.0000
  C   C3        1.0  0.07921  0.01374  0.97495  1.0000
  C   C4        1.0  0.12590  0.02928  0.96672  1.0000
  C   C5        1.0  0.13845  0.07103  0.95188  1.0000
  N   N2        1.0  0.18393  0.07214  0.94885  1.0000
  C   C6        1.0  0.20166  0.03181  0.96152  1.0000
  C   C7        1.0  0.24616  0.01791  0.96375  1.0000
  C   C8        1.0  0.25449  0.97434  0.97804  1.0000
  C   C9        1.0  0.21966  0.94590  0.98959  1.0000
  C   C10       1.0  0.17536  0.96034  0.98714  1.0000
  C   C11       1.0  0.16603  0.00414  0.97285  1.0000
  N   N3        1.0  0.94642  0.00092  0.03312  1.0000
  C   C12       1.0  0.90188  0.01552  0.02010  1.0000
  C   C13       1.0  0.88810  0.00052  0.97330  1.0000
  C   C14       1.0  0.85123  0.02122  0.95298  1.0000
  C   C15       1.0  0.83665  0.00812  0.91077  1.0000
  C   C16       1.0  0.85866  0.97411  0.88814  1.0000
  C   C17       1.0  0.89527  0.95327  0.90764  1.0000
  C   C18       1.0  0.90992  0.96629  0.94990  1.0000
  C   C19       1.0  0.86817  0.00129  0.05580  1.0000
  C   C20       1.0  0.85447  0.95691  0.05959  1.0000
  C   C21       1.0  0.82432  0.94527  0.09292  1.0000
  C   C22       1.0  0.80874  0.97787  0.12184  1.0000
  C   C23       1.0  0.82401  0.02101  0.11621  1.0000
  N   N4        1.0  0.85321  0.03331  0.08420  1.0000
  H   H1        1.0  0.01806  0.98873  0.06443  1.0000
  H   H2        1.0  0.08892  0.00373  0.04593  1.0000
  H   H3        1.0  0.06488  0.05584  0.03233  1.0000
  H   H4        1.0  0.07635  0.97839  0.96601  1.0000
  H   H5        1.0  0.05640  0.03157  0.95263  1.0000
  H   H6        1.0  0.11870  0.09998  0.94325  1.0000
  H   H7        1.0  0.20206  0.09867  0.93876  1.0000
  H   H8        1.0  0.27336  0.03999  0.95477  1.0000
  H   H9        1.0  0.28869  0.96253  0.98013  1.0000
  H   H10       1.0  0.22688  0.91214  0.00059  1.0000
  H   H11       1.0  0.14847  0.93785  0.99613  1.0000
  H   H12       1.0  0.95008  0.96883  0.04211  1.0000
  H   H13       1.0  0.90276  0.05214  0.01953  1.0000
  H   H14       1.0  0.83363  0.04791  0.97017  1.0000
  H   H15       1.0  0.80822  0.02462  0.89555  1.0000
  H   H16       1.0  0.84743  0.96404  0.85521  1.0000
  H   H17       1.0  0.91265  0.92694  0.88984  1.0000
  H   H18       1.0  0.93882  0.94957  0.96393  1.0000
  H   H19       1.0  0.86660  0.93166  0.03672  1.0000
  H   H20       1.0  0.81300  0.91103  0.09613  1.0000
  H   H21       1.0  0.78520  0.96990  0.14807  1.0000
  H   H22       1.0  0.81282  0.04775  0.13792  1.0000
