data_image0
_chemical_formula_structural       OC6NC3OC4NC5H26
_chemical_formula_sum              "O2 C18 N2 H26"
_cell_length_a       30
_cell_length_b       30
_cell_length_c       30
_cell_angle_alpha    90
_cell_angle_beta     90
_cell_angle_gamma    90

_space_group_name_H-M_alt    "P 1"
_space_group_IT_number       1

loop_
  _space_group_symop_operation_xyz
  'x, y, z'

loop_
  _atom_site_type_symbol
  _atom_site_label
  _atom_site_symmetry_multiplicity
  _atom_site_fract_x
  _atom_site_fract_y
  _atom_site_fract_z
  _atom_site_occupancy
  O   O1        1.0  0.92936  0.05289  0.00143  1.0000
  C   C1        1.0  0.90966  0.01690  0.99974  1.0000
  C   C2        1.0  0.93428  0.97245  0.00252  1.0000
  C   C3        1.0  0.98449  0.97620  0.00259  1.0000
  C   C4        1.0  0.00843  0.97613  0.96269  1.0000
  C   C5        1.0  0.05501  0.97966  0.96297  1.0000
  C   C6        1.0  0.07948  0.98371  0.00268  1.0000
  N   N1        1.0  0.12577  0.98699  0.00231  1.0000
  C   C7        1.0  0.15178  0.97896  0.04284  1.0000
  C   C8        1.0  0.19947  0.96581  0.03092  1.0000
  C   C9        1.0  0.22234  0.00088  0.00192  1.0000
  O   O2        1.0  0.25344  0.02589  0.02790  1.0000
  C   C10       1.0  0.18986  0.03274  0.97929  1.0000
  C   C11       1.0  0.14791  0.00842  0.96429  1.0000
  C   C12       1.0  0.05468  0.98382  0.04234  1.0000
  C   C13       1.0  0.00807  0.98035  0.04249  1.0000
  N   N2        1.0  0.86319  0.01473  0.99467  1.0000
  C   C14       1.0  0.83721  0.97510  0.00643  1.0000
  C   C15       1.0  0.79306  0.97270  0.98131  1.0000
  C   C16       1.0  0.76671  0.01589  0.98581  1.0000
  C   C17       1.0  0.79503  0.05526  0.97074  1.0000
  C   C18       1.0  0.83908  0.05712  0.99605  1.0000
  H   H1        1.0  0.92381  0.95520  0.03301  1.0000
  H   H2        1.0  0.92435  0.95171  0.97410  1.0000
  H   H3        1.0  0.99123  0.97334  0.93091  1.0000
  H   H4        1.0  0.07205  0.97852  0.93103  1.0000
  H   H5        1.0  0.15173  0.00883  0.06393  1.0000
  H   H6        1.0  0.13746  0.95147  0.06224  1.0000
  H   H7        1.0  0.21857  0.95943  0.06140  1.0000
  H   H8        1.0  0.19818  0.93434  0.01226  1.0000
  H   H9        1.0  0.24210  0.98362  0.97648  1.0000
  H   H10       1.0  0.23681  0.04272  0.05006  1.0000
  H   H11       1.0  0.18093  0.06001  0.00201  1.0000
  H   H12       1.0  0.20622  0.04869  0.95076  1.0000
  H   H13       1.0  0.12611  0.03310  0.94837  1.0000
  H   H14       1.0  0.15628  0.98308  0.93931  1.0000
  H   H15       1.0  0.07109  0.98766  0.07438  1.0000
  H   H16       1.0  0.99052  0.98135  0.07419  1.0000
  H   H17       1.0  0.85601  0.94464  0.99978  1.0000
  H   H18       1.0  0.83132  0.97646  0.04249  1.0000
  H   H19       1.0  0.79966  0.96633  0.94590  1.0000
  H   H20       1.0  0.77324  0.94466  0.99375  1.0000
  H   H21       1.0  0.73628  0.01404  0.96570  1.0000
  H   H22       1.0  0.75645  0.02058  0.02058  1.0000
  H   H23       1.0  0.80179  0.05217  0.93493  1.0000
  H   H24       1.0  0.77664  0.08643  0.97557  1.0000
  H   H25       1.0  0.83325  0.06513  0.03125  1.0000
  H   H26       1.0  0.85963  0.08389  0.98210  1.0000
