data_image0
_chemical_formula_structural       OCNC4SC4FC10NH19
_chemical_formula_sum              "O1 C19 N2 S1 F1 H19"
_cell_length_a       30
_cell_length_b       30
_cell_length_c       30
_cell_angle_alpha    90
_cell_angle_beta     90
_cell_angle_gamma    90

_space_group_name_H-M_alt    "P 1"
_space_group_IT_number       1

loop_
  _space_group_symop_operation_xyz
  'x, y, z'

loop_
  _atom_site_type_symbol
  _atom_site_label
  _atom_site_symmetry_multiplicity
  _atom_site_fract_x
  _atom_site_fract_y
  _atom_site_fract_z
  _atom_site_occupancy
  O   O1        1.0  0.04189  0.99981  0.89037  1.0000
  C   C1        1.0  0.04230  0.97727  0.92439  1.0000
  N   N1        1.0  0.00440  0.96278  0.94578  1.0000
  C   C2        1.0  0.96043  0.97557  0.93069  1.0000
  C   C3        1.0  0.94709  0.02235  0.94608  1.0000
  C   C4        1.0  0.94697  0.02913  0.99678  1.0000
  C   C5        1.0  0.91258  0.99995  0.02030  1.0000
  S   S1        1.0  0.90970  0.01234  0.08049  1.0000
  C   C6        1.0  0.85798  0.02650  0.06208  1.0000
  C   C7        1.0  0.81847  0.04293  0.07838  1.0000
  C   C8        1.0  0.78377  0.04871  0.04789  1.0000
  C   C9        1.0  0.79000  0.03780  0.00284  1.0000
  F   F1        1.0  0.75617  0.04345  0.97424  1.0000
  C   C10       1.0  0.83043  0.02114  0.98708  1.0000
  C   C11       1.0  0.86453  0.01585  0.01758  1.0000
  C   C12       1.0  0.08588  0.96440  0.94435  1.0000
  C   C13       1.0  0.09277  0.92189  0.97044  1.0000
  C   C14       1.0  0.09330  0.96619  0.99435  1.0000
  C   C15       1.0  0.13570  0.98507  0.01436  1.0000
  C   C16       1.0  0.17760  0.98161  0.99423  1.0000
  C   C17       1.0  0.21502  0.99994  0.01484  1.0000
  C   C18       1.0  0.21021  0.02151  0.05539  1.0000
  C   C19       1.0  0.16800  0.02374  0.07360  1.0000
  N   N2        1.0  0.13132  0.00616  0.05419  1.0000
  H   H1        1.0  0.00727  0.94617  0.97491  1.0000
  H   H2        1.0  0.93695  0.95042  0.94276  1.0000
  H   H3        1.0  0.95986  0.97435  0.89418  1.0000
  H   H4        1.0  0.91414  0.03014  0.93240  1.0000
  H   H5        1.0  0.97026  0.04666  0.93159  1.0000
  H   H6        1.0  0.94075  0.06460  0.00343  1.0000
  H   H7        1.0  0.98035  0.02198  0.00991  1.0000
  H   H8        1.0  0.91740  0.96422  0.01445  1.0000
  H   H9        1.0  0.81439  0.05101  0.11335  1.0000
  H   H10       1.0  0.75172  0.06158  0.05873  1.0000
  H   H11       1.0  0.83438  0.01282  0.95219  1.0000
  H   H12       1.0  0.11349  0.97435  0.92313  1.0000
  H   H13       1.0  0.12387  0.90408  0.96569  1.0000
  H   H14       1.0  0.06482  0.89974  0.97613  1.0000
  H   H15       1.0  0.06407  0.97328  0.01464  1.0000
  H   H16       1.0  0.18151  0.96473  0.96249  1.0000
  H   H17       1.0  0.24757  0.99734  0.99920  1.0000
  H   H18       1.0  0.23852  0.03620  0.07235  1.0000
  H   H19       1.0  0.16218  0.04024  0.10530  1.0000
