data_image0
_chemical_formula_structural       OC7FC2NCNC5SH13
_chemical_formula_sum              "O1 C15 F1 N2 S1 H13"
_cell_length_a       30
_cell_length_b       30
_cell_length_c       30
_cell_angle_alpha    90
_cell_angle_beta     90
_cell_angle_gamma    90

_space_group_name_H-M_alt    "P 1"
_space_group_IT_number       1

loop_
  _space_group_symop_operation_xyz
  'x, y, z'

loop_
  _atom_site_type_symbol
  _atom_site_label
  _atom_site_symmetry_multiplicity
  _atom_site_fract_x
  _atom_site_fract_y
  _atom_site_fract_z
  _atom_site_occupancy
  O   O1        1.0  0.97011  0.00195  0.95911  1.0000
  C   C1        1.0  0.97786  0.03932  0.97324  1.0000
  C   C2        1.0  0.94231  0.07401  0.97505  1.0000
  C   C3        1.0  0.89946  0.06687  0.98585  1.0000
  C   C4        1.0  0.87865  0.02503  0.00043  1.0000
  C   C5        1.0  0.83845  0.01176  0.98058  1.0000
  C   C6        1.0  0.81690  0.97294  0.99460  1.0000
  C   C7        1.0  0.83538  0.94760  0.02867  1.0000
  F   F1        1.0  0.81464  0.91044  0.04218  1.0000
  C   C8        1.0  0.87492  0.96040  0.04907  1.0000
  C   C9        1.0  0.89646  0.99926  0.03511  1.0000
  N   N1        1.0  0.01750  0.05612  0.98875  1.0000
  C   C10       1.0  0.05550  0.03107  0.99080  1.0000
  N   N2        1.0  0.06246  0.98943  0.97892  1.0000
  C   C11       1.0  0.10594  0.98001  0.98768  1.0000
  C   C12       1.0  0.13091  0.01357  0.00559  1.0000
  C   C13       1.0  0.17768  0.00120  0.01417  1.0000
  C   C14       1.0  0.17530  0.94935  0.00825  1.0000
  C   C15       1.0  0.13198  0.93878  0.98106  1.0000
  S   S1        1.0  0.10068  0.05983  0.01261  1.0000
  H   H1        1.0  0.95254  0.10727  0.96518  1.0000
  H   H2        1.0  0.87649  0.09489  0.98387  1.0000
  H   H3        1.0  0.82385  0.03128  0.95375  1.0000
  H   H4        1.0  0.78600  0.96230  0.97909  1.0000
  H   H5        1.0  0.88887  0.94008  0.07553  1.0000
  H   H6        1.0  0.92739  0.00886  0.05136  1.0000
  H   H7        1.0  0.01987  0.08752  0.00036  1.0000
  H   H8        1.0  0.19990  0.01586  0.98922  1.0000
  H   H9        1.0  0.18915  0.01011  0.04760  1.0000
  H   H10       1.0  0.20522  0.93592  0.99227  1.0000
  H   H11       1.0  0.17262  0.93379  0.04127  1.0000
  H   H12       1.0  0.11517  0.90914  0.99395  1.0000
  H   H13       1.0  0.13987  0.93404  0.94576  1.0000
