data_image0
_chemical_formula_structural       OC4ClCONC4NOC5H19
_chemical_formula_sum              "O3 C14 Cl1 N2 H19"
_cell_length_a       30
_cell_length_b       30
_cell_length_c       30
_cell_angle_alpha    90
_cell_angle_beta     90
_cell_angle_gamma    90

_space_group_name_H-M_alt    "P 1"
_space_group_IT_number       1

loop_
  _space_group_symop_operation_xyz
  'x, y, z'

loop_
  _atom_site_type_symbol
  _atom_site_label
  _atom_site_symmetry_multiplicity
  _atom_site_fract_x
  _atom_site_fract_y
  _atom_site_fract_z
  _atom_site_occupancy
  O   O1        1.0  0.03177  0.02727  0.99752  1.0000
  C   C1        1.0  0.03888  0.98835  0.98733  1.0000
  C   C2        1.0  0.00324  0.95447  0.97556  1.0000
  C   C3        1.0  0.96141  0.97698  0.96005  1.0000
  C   C4        1.0  0.94229  0.97394  0.91973  1.0000
  Cl  Cl1       1.0  0.95766  0.94427  0.87452  1.0000
  C   C5        1.0  0.90271  0.00372  0.92097  1.0000
  O   O2        1.0  0.87479  0.00769  0.89172  1.0000
  N   N1        1.0  0.90406  0.02476  0.96234  1.0000
  C   C6        1.0  0.86628  0.04604  0.98340  1.0000
  C   C7        1.0  0.83621  0.01249  0.00507  1.0000
  C   C8        1.0  0.84461  0.99655  0.05201  1.0000
  C   C9        1.0  0.80556  0.02646  0.04240  1.0000
  N   N2        1.0  0.93790  0.00540  0.98851  1.0000
  O   O3        1.0  0.07975  0.96851  0.98671  1.0000
  C   C10       1.0  0.11637  0.99666  0.99830  1.0000
  C   C11       1.0  0.16002  0.97377  0.98611  1.0000
  C   C12       1.0  0.19469  0.99793  0.01418  1.0000
  C   C13       1.0  0.16992  0.01452  0.05554  1.0000
  C   C14       1.0  0.12104  0.00244  0.04856  1.0000
  H   H1        1.0  0.01642  0.93235  0.94968  1.0000
  H   H2        1.0  0.99633  0.93437  0.00525  1.0000
  H   H3        1.0  0.84750  0.06400  0.95774  1.0000
  H   H4        1.0  0.87897  0.07050  0.00738  1.0000
  H   H5        1.0  0.82319  0.98867  0.98117  1.0000
  H   H6        1.0  0.83806  0.96177  0.05931  1.0000
  H   H7        1.0  0.87260  0.01039  0.07020  1.0000
  H   H8        1.0  0.77248  0.01192  0.04337  1.0000
  H   H9        1.0  0.80703  0.06052  0.05438  1.0000
  H   H10       1.0  0.95877  0.02859  0.00286  1.0000
  H   H11       1.0  0.11417  0.02891  0.98112  1.0000
  H   H12       1.0  0.16712  0.97580  0.95038  1.0000
  H   H13       1.0  0.15887  0.93825  0.99477  1.0000
  H   H14       1.0  0.22261  0.97609  0.02281  1.0000
  H   H15       1.0  0.20828  0.02639  0.99573  1.0000
  H   H16       1.0  0.17392  0.05069  0.05877  1.0000
  H   H17       1.0  0.18294  0.99932  0.08606  1.0000
  H   H18       1.0  0.09861  0.02801  0.06175  1.0000
  H   H19       1.0  0.11295  0.97127  0.06589  1.0000
