data_image0
_chemical_formula_structural       OC8NC2NCNC3ClC3SC2H24
_chemical_formula_sum              "O1 C19 N3 Cl1 S1 H24"
_cell_length_a       30
_cell_length_b       30
_cell_length_c       30
_cell_angle_alpha    90
_cell_angle_beta     90
_cell_angle_gamma    90

_space_group_name_H-M_alt    "P 1"
_space_group_IT_number       1

loop_
  _space_group_symop_operation_xyz
  'x, y, z'

loop_
  _atom_site_type_symbol
  _atom_site_label
  _atom_site_symmetry_multiplicity
  _atom_site_fract_x
  _atom_site_fract_y
  _atom_site_fract_z
  _atom_site_occupancy
  O   O1        1.0  0.92188  0.97799  0.08554  1.0000
  C   C1        1.0  0.93696  0.97964  0.04736  1.0000
  C   C2        1.0  0.90704  0.96830  0.00805  1.0000
  C   C3        1.0  0.88469  0.01003  0.98812  1.0000
  C   C4        1.0  0.84750  0.02886  0.01808  1.0000
  C   C5        1.0  0.80564  0.99984  0.01889  1.0000
  C   C6        1.0  0.78853  0.99009  0.97201  1.0000
  C   C7        1.0  0.82483  0.97066  0.94217  1.0000
  C   C8        1.0  0.86618  0.00036  0.94130  1.0000
  N   N1        1.0  0.98045  0.99241  0.03866  1.0000
  C   C9        1.0  0.00125  0.99272  0.99435  1.0000
  C   C10       1.0  0.04610  0.01759  0.99295  1.0000
  N   N2        1.0  0.07675  0.00032  0.02688  1.0000
  C   C11       1.0  0.12148  0.00195  0.01904  1.0000
  N   N3        1.0  0.13867  0.02025  0.98307  1.0000
  C   C12       1.0  0.18467  0.01735  0.98295  1.0000
  C   C13       1.0  0.21313  0.03382  0.94942  1.0000
  C   C14       1.0  0.25912  0.02837  0.95393  1.0000
  Cl  Cl1       1.0  0.29405  0.04844  0.91304  1.0000
  C   C15       1.0  0.27714  0.00697  0.99092  1.0000
  C   C16       1.0  0.24944  0.99038  0.02454  1.0000
  C   C17       1.0  0.20320  0.99600  0.01977  1.0000
  S   S1        1.0  0.16099  0.97959  0.05470  1.0000
  C   C18       1.0  0.05777  0.98613  0.06966  1.0000
  C   C19       1.0  0.00985  0.00334  0.07615  1.0000
  H   H1        1.0  0.92666  0.95068  0.98280  1.0000
  H   H2        1.0  0.88238  0.94395  0.01960  1.0000
  H   H3        1.0  0.91001  0.03622  0.98479  1.0000
  H   H4        1.0  0.85960  0.03386  0.05216  1.0000
  H   H5        1.0  0.83829  0.06202  0.00562  1.0000
  H   H6        1.0  0.77953  0.01675  0.03806  1.0000
  H   H7        1.0  0.81251  0.96843  0.03621  1.0000
  H   H8        1.0  0.76033  0.96695  0.97377  1.0000
  H   H9        1.0  0.77593  0.02102  0.95709  1.0000
  H   H10       1.0  0.81190  0.96680  0.90822  1.0000
  H   H11       1.0  0.83375  0.93721  0.95387  1.0000
  H   H12       1.0  0.85749  0.03210  0.92528  1.0000
  H   H13       1.0  0.89192  0.98500  0.92039  1.0000
  H   H14       1.0  0.97840  0.00745  0.97009  1.0000
  H   H15       1.0  0.00634  0.95774  0.98499  1.0000
  H   H16       1.0  0.04070  0.05327  0.99888  1.0000
  H   H17       1.0  0.05976  0.01394  0.95923  1.0000
  H   H18       1.0  0.19892  0.05049  0.92064  1.0000
  H   H19       1.0  0.31306  0.00297  0.99395  1.0000
  H   H20       1.0  0.26333  0.97364  0.05347  1.0000
  H   H21       1.0  0.07771  0.99843  0.09770  1.0000
  H   H22       1.0  0.05767  0.94959  0.07090  1.0000
  H   H23       1.0  0.99643  0.99031  0.10749  1.0000
  H   H24       1.0  0.01007  0.03981  0.07879  1.0000
