data_image0
_chemical_formula_structural       OCNC5OCOC4NC4NC4H25
_chemical_formula_sum              "O3 C19 N3 H25"
_cell_length_a       30
_cell_length_b       30
_cell_length_c       30
_cell_angle_alpha    90
_cell_angle_beta     90
_cell_angle_gamma    90

_space_group_name_H-M_alt    "P 1"
_space_group_IT_number       1

loop_
  _space_group_symop_operation_xyz
  'x, y, z'

loop_
  _atom_site_type_symbol
  _atom_site_label
  _atom_site_symmetry_multiplicity
  _atom_site_fract_x
  _atom_site_fract_y
  _atom_site_fract_z
  _atom_site_occupancy
  O   O1        1.0  0.03789  0.92892  0.00664  1.0000
  C   C1        1.0  0.02135  0.95843  0.98365  1.0000
  N   N1        1.0  0.03973  0.97145  0.94337  1.0000
  C   C2        1.0  0.08233  0.95444  0.92860  1.0000
  C   C3        1.0  0.11893  0.98733  0.93889  1.0000
  C   C4        1.0  0.13375  0.01770  0.90600  1.0000
  C   C5        1.0  0.16705  0.04893  0.91546  1.0000
  C   C6        1.0  0.18472  0.04914  0.95785  1.0000
  O   O2        1.0  0.21705  0.07713  0.97287  1.0000
  C   C7        1.0  0.22263  0.06101  0.01792  1.0000
  O   O3        1.0  0.19221  0.02565  0.02944  1.0000
  C   C8        1.0  0.17049  0.01988  0.99007  1.0000
  C   C9        1.0  0.13762  0.98883  0.98182  1.0000
  C   C10       1.0  0.97809  0.98400  0.99606  1.0000
  C   C11       1.0  0.93928  0.96183  0.96999  1.0000
  N   N2        1.0  0.89314  0.97595  0.97899  1.0000
  C   C12       1.0  0.88360  0.02314  0.97425  1.0000
  C   C13       1.0  0.90652  0.05682  0.00481  1.0000
  C   C14       1.0  0.91259  0.04433  0.05372  1.0000
  C   C15       1.0  0.93219  0.99846  0.06517  1.0000
  N   N3        1.0  0.97510  0.98744  0.04496  1.0000
  C   C16       1.0  0.89982  0.95938  0.06018  1.0000
  C   C17       1.0  0.85382  0.96138  0.08394  1.0000
  C   C18       1.0  0.83216  0.97100  0.03833  1.0000
  C   C19       1.0  0.87430  0.95124  0.01647  1.0000
  H   H1        1.0  0.02873  0.99975  0.92884  1.0000
  H   H2        1.0  0.08963  0.92209  0.94388  1.0000
  H   H3        1.0  0.07989  0.94904  0.89255  1.0000
  H   H4        1.0  0.11932  0.01700  0.87274  1.0000
  H   H5        1.0  0.17870  0.07218  0.89034  1.0000
  H   H6        1.0  0.21755  0.08884  0.04110  1.0000
  H   H7        1.0  0.25686  0.04873  0.02172  1.0000
  H   H8        1.0  0.12650  0.96640  0.00798  1.0000
  H   H9        1.0  0.98308  0.01772  0.98319  1.0000
  H   H10       1.0  0.94524  0.96747  0.93425  1.0000
  H   H11       1.0  0.94159  0.92541  0.97362  1.0000
  H   H12       1.0  0.84752  0.02880  0.97487  1.0000
  H   H13       1.0  0.89228  0.03254  0.93992  1.0000
  H   H14       1.0  0.88705  0.08781  0.00365  1.0000
  H   H15       1.0  0.93872  0.06648  0.99069  1.0000
  H   H16       1.0  0.93443  0.06981  0.06841  1.0000
  H   H17       1.0  0.88056  0.04854  0.07078  1.0000
  H   H18       1.0  0.93930  0.00016  0.10107  1.0000
  H   H19       1.0  0.99983  0.00749  0.05663  1.0000
  H   H20       1.0  0.91756  0.92898  0.07080  1.0000
  H   H21       1.0  0.84962  0.98727  0.10924  1.0000
  H   H22       1.0  0.84356  0.92941  0.09840  1.0000
  H   H23       1.0  0.80144  0.95236  0.03188  1.0000
  H   H24       1.0  0.82458  0.00638  0.03450  1.0000
  H   H25       1.0  0.87011  0.91553  0.00925  1.0000
