data_image0
_chemical_formula_structural       OCNC5OC9SN2C2OC2H25
_chemical_formula_sum              "O3 C19 N3 S1 H25"
_cell_length_a       30
_cell_length_b       30
_cell_length_c       30
_cell_angle_alpha    90
_cell_angle_beta     90
_cell_angle_gamma    90

_space_group_name_H-M_alt    "P 1"
_space_group_IT_number       1

loop_
  _space_group_symop_operation_xyz
  'x, y, z'

loop_
  _atom_site_type_symbol
  _atom_site_label
  _atom_site_symmetry_multiplicity
  _atom_site_fract_x
  _atom_site_fract_y
  _atom_site_fract_z
  _atom_site_occupancy
  O   O1        1.0  0.09761  0.00630  0.94818  1.0000
  C   C1        1.0  0.08006  0.01664  0.98368  1.0000
  N   N1        1.0  0.04229  0.04210  0.98680  1.0000
  C   C2        1.0  0.02042  0.05927  0.94755  1.0000
  C   C3        1.0  0.97419  0.07266  0.96070  1.0000
  C   C4        1.0  0.93769  0.04573  0.96979  1.0000
  C   C5        1.0  0.93814  0.99545  0.96795  1.0000
  C   C6        1.0  0.93546  0.97289  0.01392  1.0000
  O   O2        1.0  0.97740  0.97565  0.03634  1.0000
  C   C7        1.0  0.92393  0.92418  0.00924  1.0000
  C   C8        1.0  0.90352  0.89822  0.04727  1.0000
  C   C9        1.0  0.87578  0.90970  0.00719  1.0000
  C   C10       1.0  0.89833  0.07188  0.98015  1.0000
  C   C11       1.0  0.85400  0.05852  0.98986  1.0000
  C   C12       1.0  0.82106  0.09005  0.99945  1.0000
  C   C13       1.0  0.83123  0.13503  0.99970  1.0000
  C   C14       1.0  0.87442  0.14928  0.99028  1.0000
  C   C15       1.0  0.90747  0.11739  0.98041  1.0000
  S   S1        1.0  0.96218  0.12775  0.96737  1.0000
  N   N2        1.0  0.09492  0.00461  0.02590  1.0000
  N   N3        1.0  0.13253  0.97720  0.03287  1.0000
  C   C16       1.0  0.12495  0.93039  0.02029  1.0000
  C   C17       1.0  0.16857  0.90394  0.02423  1.0000
  O   O3        1.0  0.20390  0.92006  0.99647  1.0000
  C   C18       1.0  0.19553  0.96390  0.97903  1.0000
  C   C19       1.0  0.17430  0.99508  0.01367  1.0000
  H   H1        1.0  0.03774  0.05889  0.01568  1.0000
  H   H2        1.0  0.01969  0.03383  0.92150  1.0000
  H   H3        1.0  0.04009  0.08713  0.93484  1.0000
  H   H4        1.0  0.90975  0.98480  0.94750  1.0000
  H   H5        1.0  0.96802  0.98417  0.95054  1.0000
  H   H6        1.0  0.91093  0.98964  0.03495  1.0000
  H   H7        1.0  0.97278  0.96246  0.06574  1.0000
  H   H8        1.0  0.94768  0.90663  0.98835  1.0000
  H   H9        1.0  0.91357  0.86382  0.05151  1.0000
  H   H10       1.0  0.89626  0.91527  0.07816  1.0000
  H   H11       1.0  0.86699  0.88286  0.98474  1.0000
  H   H12       1.0  0.84996  0.93447  0.01137  1.0000
  H   H13       1.0  0.84523  0.02340  0.98978  1.0000
  H   H14       1.0  0.78735  0.07915  0.00669  1.0000
  H   H15       1.0  0.80551  0.15950  0.00715  1.0000
  H   H16       1.0  0.88244  0.18473  0.99028  1.0000
  H   H17       1.0  0.07044  0.00274  0.04930  1.0000
  H   H18       1.0  0.09989  0.91579  0.04240  1.0000
  H   H19       1.0  0.11245  0.92768  0.98608  1.0000
  H   H20       1.0  0.18057  0.90475  0.05857  1.0000
  H   H21       1.0  0.16316  0.86900  0.01544  1.0000
  H   H22       1.0  0.22764  0.97744  0.96813  1.0000
  H   H23       1.0  0.17453  0.96055  0.94917  1.0000
  H   H24       1.0  0.19780  0.99920  0.04156  1.0000
  H   H25       1.0  0.16962  0.02826  0.99911  1.0000
