data_image0
_chemical_formula_structural       OCOC3NCOC5OC4H17
_chemical_formula_sum              "O4 C14 N1 H17"
_cell_length_a       30
_cell_length_b       30
_cell_length_c       30
_cell_angle_alpha    90
_cell_angle_beta     90
_cell_angle_gamma    90

_space_group_name_H-M_alt    "P 1"
_space_group_IT_number       1

loop_
  _space_group_symop_operation_xyz
  'x, y, z'

loop_
  _atom_site_type_symbol
  _atom_site_label
  _atom_site_symmetry_multiplicity
  _atom_site_fract_x
  _atom_site_fract_y
  _atom_site_fract_z
  _atom_site_occupancy
  O   O1        1.0  0.81351  0.94978  0.02642  1.0000
  C   C1        1.0  0.81518  0.98546  0.00714  1.0000
  O   O2        1.0  0.77693  0.00518  0.99372  1.0000
  C   C2        1.0  0.85519  0.01338  0.99481  1.0000
  C   C3        1.0  0.90229  0.99783  0.00695  1.0000
  C   C4        1.0  0.93691  0.03194  0.99195  1.0000
  N   N1        1.0  0.98246  0.01671  0.99565  1.0000
  C   C5        1.0  0.01640  0.04059  0.97579  1.0000
  O   O3        1.0  0.01010  0.07344  0.95234  1.0000
  C   C6        1.0  0.06261  0.02520  0.98542  1.0000
  C   C7        1.0  0.09733  0.05628  0.98300  1.0000
  C   C8        1.0  0.14119  0.04326  0.99171  1.0000
  C   C9        1.0  0.15089  0.99897  0.00288  1.0000
  C   C10       1.0  0.19818  0.98444  0.01133  1.0000
  O   O4        1.0  0.21587  0.96259  0.97323  1.0000
  C   C11       1.0  0.11613  0.96776  0.00441  1.0000
  C   C12       1.0  0.07222  0.98071  0.99573  1.0000
  C   C13       1.0  0.90999  0.97239  0.05009  1.0000
  C   C14       1.0  0.91359  0.94844  0.00607  1.0000
  H   H1        1.0  0.75364  0.98433  0.00325  1.0000
  H   H2        1.0  0.85014  0.04616  0.01025  1.0000
  H   H3        1.0  0.85402  0.01762  0.95850  1.0000
  H   H4        1.0  0.93382  0.06222  0.01217  1.0000
  H   H5        1.0  0.93086  0.04118  0.95711  1.0000
  H   H6        1.0  0.99039  0.99709  0.02179  1.0000
  H   H7        1.0  0.09026  0.09078  0.97428  1.0000
  H   H8        1.0  0.16769  0.06795  0.98956  1.0000
  H   H9        1.0  0.19973  0.96161  0.03977  1.0000
  H   H10       1.0  0.21947  0.01304  0.01911  1.0000
  H   H11       1.0  0.19734  0.97043  0.94780  1.0000
  H   H12       1.0  0.12330  0.93298  0.01199  1.0000
  H   H13       1.0  0.04618  0.95554  0.99615  1.0000
  H   H14       1.0  0.94015  0.97813  0.06912  1.0000
  H   H15       1.0  0.88191  0.96436  0.07143  1.0000
  H   H16       1.0  0.94624  0.93781  0.99482  1.0000
  H   H17       1.0  0.88789  0.92440  0.99770  1.0000
