data_image0
_chemical_formula_structural       OC5OC5NC6FH20
_chemical_formula_sum              "O2 C16 N1 F1 H20"
_cell_length_a       30
_cell_length_b       30
_cell_length_c       30
_cell_angle_alpha    90
_cell_angle_beta     90
_cell_angle_gamma    90

_space_group_name_H-M_alt    "P 1"
_space_group_IT_number       1

loop_
  _space_group_symop_operation_xyz
  'x, y, z'

loop_
  _atom_site_type_symbol
  _atom_site_label
  _atom_site_symmetry_multiplicity
  _atom_site_fract_x
  _atom_site_fract_y
  _atom_site_fract_z
  _atom_site_occupancy
  O   O1        1.0  0.95413  0.97382  0.96877  1.0000
  C   C1        1.0  0.95042  0.99486  0.00358  1.0000
  C   C2        1.0  0.99068  0.01135  0.02982  1.0000
  C   C3        1.0  0.03518  0.00514  0.00521  1.0000
  C   C4        1.0  0.03986  0.03825  0.96628  1.0000
  C   C5        1.0  0.08508  0.03330  0.94375  1.0000
  O   O2        1.0  0.11989  0.03768  0.97583  1.0000
  C   C6        1.0  0.11862  0.00645  0.01275  1.0000
  C   C7        1.0  0.16004  0.00901  0.04395  1.0000
  C   C8        1.0  0.18107  0.97147  0.01604  1.0000
  C   C9        1.0  0.13363  0.95785  0.00203  1.0000
  C   C10       1.0  0.07440  0.01138  0.03763  1.0000
  N   N1        1.0  0.91094  0.00605  0.02457  1.0000
  C   C11       1.0  0.86707  0.99641  0.01051  1.0000
  C   C12       1.0  0.85632  0.97330  0.97162  1.0000
  C   C13       1.0  0.81164  0.96543  0.96057  1.0000
  C   C14       1.0  0.77741  0.98055  0.98821  1.0000
  C   C15       1.0  0.78776  0.00366  0.02709  1.0000
  C   C16       1.0  0.83224  0.01135  0.03783  1.0000
  F   F1        1.0  0.84185  0.03369  0.07543  1.0000
  H   H1        1.0  0.98577  0.04658  0.03828  1.0000
  H   H2        1.0  0.99126  0.99235  0.06108  1.0000
  H   H3        1.0  0.03680  0.97117  0.99164  1.0000
  H   H4        1.0  0.01340  0.03347  0.94160  1.0000
  H   H5        1.0  0.03673  0.07234  0.97917  1.0000
  H   H6        1.0  0.08804  0.00106  0.92690  1.0000
  H   H7        1.0  0.08955  0.05940  0.91866  1.0000
  H   H8        1.0  0.15360  0.99965  0.07869  1.0000
  H   H9        1.0  0.17832  0.04055  0.04356  1.0000
  H   H10       1.0  0.19987  0.94646  0.03470  1.0000
  H   H11       1.0  0.20161  0.98355  0.98835  1.0000
  H   H12       1.0  0.13053  0.94710  0.96735  1.0000
  H   H13       1.0  0.11869  0.93232  0.02349  1.0000
  H   H14       1.0  0.07262  0.04452  0.05304  1.0000
  H   H15       1.0  0.07208  0.98696  0.06476  1.0000
  H   H16       1.0  0.91294  0.02323  0.05366  1.0000
  H   H17       1.0  0.88182  0.96093  0.94913  1.0000
  H   H18       1.0  0.80368  0.94735  0.93015  1.0000
  H   H19       1.0  0.74283  0.97430  0.97937  1.0000
  H   H20       1.0  0.76164  0.01570  0.04902  1.0000
