data_image0
_chemical_formula_structural       OCNC5NC7FC8SH19
_chemical_formula_sum              "O1 C21 N2 F1 S1 H19"
_cell_length_a       30
_cell_length_b       30
_cell_length_c       30
_cell_angle_alpha    90
_cell_angle_beta     90
_cell_angle_gamma    90

_space_group_name_H-M_alt    "P 1"
_space_group_IT_number       1

loop_
  _space_group_symop_operation_xyz
  'x, y, z'

loop_
  _atom_site_type_symbol
  _atom_site_label
  _atom_site_symmetry_multiplicity
  _atom_site_fract_x
  _atom_site_fract_y
  _atom_site_fract_z
  _atom_site_occupancy
  O   O1        1.0  0.14564  0.01057  0.08818  1.0000
  C   C1        1.0  0.15764  0.00576  0.04936  1.0000
  N   N1        1.0  0.12887  0.99645  0.01430  1.0000
  C   C2        1.0  0.08195  0.99313  0.01543  1.0000
  C   C3        1.0  0.05598  0.00194  0.05294  1.0000
  C   C4        1.0  0.00952  0.99825  0.05098  1.0000
  C   C5        1.0  0.98813  0.98588  0.01138  1.0000
  C   C6        1.0  0.93787  0.98082  0.01050  1.0000
  N   N2        1.0  0.91885  0.98084  0.96502  1.0000
  C   C7        1.0  0.87101  0.96953  0.96615  1.0000
  C   C8        1.0  0.84234  0.00519  0.98718  1.0000
  C   C9        1.0  0.84528  0.04982  0.97342  1.0000
  C   C10       1.0  0.81806  0.08237  0.99262  1.0000
  C   C11       1.0  0.78738  0.07071  0.02555  1.0000
  C   C12       1.0  0.78390  0.02645  0.03923  1.0000
  C   C13       1.0  0.81116  0.99418  0.01998  1.0000
  F   F1        1.0  0.80703  0.95180  0.03359  1.0000
  C   C14       1.0  0.94326  0.94868  0.93719  1.0000
  C   C15       1.0  0.99168  0.96376  0.93051  1.0000
  C   C16       1.0  0.01407  0.97634  0.97369  1.0000
  C   C17       1.0  0.06063  0.98052  0.97581  1.0000
  C   C18       1.0  0.20450  0.00864  0.03586  1.0000
  C   C19       1.0  0.22330  0.01668  0.99443  1.0000
  C   C20       1.0  0.27085  0.01664  0.99552  1.0000
  C   C21       1.0  0.28704  0.00890  0.03771  1.0000
  S   S1        1.0  0.24520  0.00205  0.07569  1.0000
  H   H1        1.0  0.14309  0.98932  0.98467  1.0000
  H   H2        1.0  0.07064  0.01202  0.08444  1.0000
  H   H3        1.0  0.99011  0.00528  0.08081  1.0000
  H   H4        1.0  0.92962  0.94972  0.02798  1.0000
  H   H5        1.0  0.92354  0.00861  0.02944  1.0000
  H   H6        1.0  0.86598  0.93729  0.98273  1.0000
  H   H7        1.0  0.85858  0.96549  0.93195  1.0000
  H   H8        1.0  0.86919  0.05930  0.94782  1.0000
  H   H9        1.0  0.82088  0.11687  0.98185  1.0000
  H   H10       1.0  0.76624  0.09606  0.04047  1.0000
  H   H11       1.0  0.76011  0.01684  0.06473  1.0000
  H   H12       1.0  0.94241  0.91527  0.95217  1.0000
  H   H13       1.0  0.92779  0.94604  0.90416  1.0000
  H   H14       1.0  0.01027  0.93680  0.91429  1.0000
  H   H15       1.0  0.99247  0.99286  0.90836  1.0000
  H   H16       1.0  0.08004  0.97373  0.94597  1.0000
  H   H17       1.0  0.20432  0.02305  0.96440  1.0000
  H   H18       1.0  0.29209  0.02232  0.96686  1.0000
  H   H19       1.0  0.32148  0.00722  0.04824  1.0000
