data_image0
_chemical_formula_structural       OC2SCN2C7NC6NC4BrC2H17
_chemical_formula_sum              "O1 C22 S1 N4 Br1 H17"
_cell_length_a       30
_cell_length_b       30
_cell_length_c       30
_cell_angle_alpha    90
_cell_angle_beta     90
_cell_angle_gamma    90

_space_group_name_H-M_alt    "P 1"
_space_group_IT_number       1

loop_
  _space_group_symop_operation_xyz
  'x, y, z'

loop_
  _atom_site_type_symbol
  _atom_site_label
  _atom_site_symmetry_multiplicity
  _atom_site_fract_x
  _atom_site_fract_y
  _atom_site_fract_z
  _atom_site_occupancy
  O   O1        1.0  0.85534  0.03313  0.92520  1.0000
  C   C1        1.0  0.88825  0.01987  0.94613  1.0000
  C   C2        1.0  0.93520  0.03338  0.93201  1.0000
  S   S1        1.0  0.96122  0.07028  0.97239  1.0000
  C   C3        1.0  0.99278  0.03169  0.00151  1.0000
  N   N1        1.0  0.97491  0.99554  0.01856  1.0000
  N   N2        1.0  0.00904  0.96819  0.03113  1.0000
  C   C4        1.0  0.04769  0.98820  0.02259  1.0000
  C   C5        1.0  0.09132  0.96896  0.03393  1.0000
  C   C6        1.0  0.10100  0.92505  0.02072  1.0000
  C   C7        1.0  0.14234  0.90570  0.03070  1.0000
  C   C8        1.0  0.17435  0.92998  0.05419  1.0000
  C   C9        1.0  0.16483  0.97336  0.06833  1.0000
  C   C10       1.0  0.12338  0.99270  0.05856  1.0000
  N   N3        1.0  0.03921  0.02964  0.00296  1.0000
  C   C11       1.0  0.07068  0.06096  0.98602  1.0000
  C   C12       1.0  0.10892  0.04611  0.96372  1.0000
  C   C13       1.0  0.13992  0.07682  0.94744  1.0000
  C   C14       1.0  0.13278  0.12239  0.95295  1.0000
  C   C15       1.0  0.09476  0.13733  0.97475  1.0000
  C   C16       1.0  0.06374  0.10681  0.99142  1.0000
  N   N4        1.0  0.88753  0.99109  0.98207  1.0000
  C   C17       1.0  0.85061  0.96842  0.00040  1.0000
  C   C18       1.0  0.85814  0.94407  0.03968  1.0000
  C   C19       1.0  0.82340  0.91998  0.05959  1.0000
  C   C20       1.0  0.78109  0.91994  0.04015  1.0000
  Br  Br1       1.0  0.73394  0.88726  0.06673  1.0000
  C   C21       1.0  0.77329  0.94382  0.00116  1.0000
  C   C22       1.0  0.80815  0.96793  0.98130  1.0000
  H   H1        1.0  0.95510  0.00330  0.92625  1.0000
  H   H2        1.0  0.93315  0.05096  0.90016  1.0000
  H   H3        1.0  0.07619  0.90562  0.00255  1.0000
  H   H4        1.0  0.14935  0.87158  0.02028  1.0000
  H   H5        1.0  0.20655  0.91488  0.06199  1.0000
  H   H6        1.0  0.18962  0.99201  0.08734  1.0000
  H   H7        1.0  0.11643  0.02621  0.07071  1.0000
  H   H8        1.0  0.11498  0.01083  0.95737  1.0000
  H   H9        1.0  0.16979  0.06508  0.93048  1.0000
  H   H10       1.0  0.15687  0.14623  0.94012  1.0000
  H   H11       1.0  0.08931  0.17290  0.97897  1.0000
  H   H12       1.0  0.03526  0.11982  0.00917  1.0000
  H   H13       1.0  0.91721  0.98711  0.99884  1.0000
  H   H14       1.0  0.89121  0.94367  0.05537  1.0000
  H   H15       1.0  0.82990  0.90136  0.08994  1.0000
  H   H16       1.0  0.74012  0.94409  0.98576  1.0000
  H   H17       1.0  0.80112  0.98575  0.95072  1.0000
