data_image0
_chemical_formula_structural       OCNC3NC6N2OCN2C4OC2OH18
_chemical_formula_sum              "O4 C17 N6 H18"
_cell_length_a       30
_cell_length_b       30
_cell_length_c       30
_cell_angle_alpha    90
_cell_angle_beta     90
_cell_angle_gamma    90

_space_group_name_H-M_alt    "P 1"
_space_group_IT_number       1

loop_
  _space_group_symop_operation_xyz
  'x, y, z'

loop_
  _atom_site_type_symbol
  _atom_site_label
  _atom_site_symmetry_multiplicity
  _atom_site_fract_x
  _atom_site_fract_y
  _atom_site_fract_z
  _atom_site_occupancy
  O   O1        1.0  0.00377  0.07477  0.05526  1.0000
  C   C1        1.0  0.02635  0.04436  0.03957  1.0000
  N   N1        1.0  0.00625  0.00823  0.01874  1.0000
  C   C2        1.0  0.95823  0.00522  0.01299  1.0000
  C   C3        1.0  0.93424  0.99251  0.05609  1.0000
  C   C4        1.0  0.88584  0.98621  0.04907  1.0000
  N   N2        1.0  0.86123  0.99314  0.01362  1.0000
  C   C5        1.0  0.81897  0.98156  0.02803  1.0000
  C   C6        1.0  0.77936  0.98447  0.99943  1.0000
  C   C7        1.0  0.73765  0.97096  0.01496  1.0000
  C   C8        1.0  0.70089  0.97456  0.98676  1.0000
  C   C9        1.0  0.70662  0.99155  0.94404  1.0000
  C   C10       1.0  0.74908  0.00419  0.93110  1.0000
  N   N3        1.0  0.78535  0.00095  0.95756  1.0000
  N   N4        1.0  0.81800  0.96750  0.07071  1.0000
  O   O2        1.0  0.86218  0.97066  0.08452  1.0000
  C   C11       1.0  0.07464  0.04222  0.04141  1.0000
  N   N5        1.0  0.10185  0.07244  0.05809  1.0000
  N   N6        1.0  0.14442  0.05583  0.05303  1.0000
  C   C12       1.0  0.14044  0.01675  0.03343  1.0000
  C   C13       1.0  0.17525  0.98312  0.02153  1.0000
  C   C14       1.0  0.17502  0.97201  0.97143  1.0000
  C   C15       1.0  0.21379  0.99355  0.94648  1.0000
  O   O3        1.0  0.22173  0.03686  0.96376  1.0000
  C   C16       1.0  0.23984  0.03624  0.00777  1.0000
  C   C17       1.0  0.22179  0.99804  0.03643  1.0000
  O   O4        1.0  0.09687  0.00542  0.02536  1.0000
  H   H1        1.0  0.02605  0.98400  0.00596  1.0000
  H   H2        1.0  0.94609  0.03738  0.00049  1.0000
  H   H3        1.0  0.95231  0.98022  0.98693  1.0000
  H   H4        1.0  0.93933  0.01826  0.08145  1.0000
  H   H5        1.0  0.94857  0.96164  0.06939  1.0000
  H   H6        1.0  0.73349  0.95779  0.04849  1.0000
  H   H7        1.0  0.66809  0.96426  0.99818  1.0000
  H   H8        1.0  0.67865  0.99492  0.92136  1.0000
  H   H9        1.0  0.75528  0.01774  0.89812  1.0000
  H   H10       1.0  0.16663  0.95267  0.03997  1.0000
  H   H11       1.0  0.14357  0.98251  0.95589  1.0000
  H   H12       1.0  0.17699  0.93579  0.96667  1.0000
  H   H13       1.0  0.20569  0.99652  0.91094  1.0000
  H   H14       1.0  0.24427  0.97347  0.94898  1.0000
  H   H15       1.0  0.27623  0.03423  0.00544  1.0000
  H   H16       1.0  0.23196  0.06843  0.02299  1.0000
  H   H17       1.0  0.24450  0.96948  0.03314  1.0000
  H   H18       1.0  0.22262  0.00736  0.07181  1.0000
