data_image0
_chemical_formula_structural       OCNC7F3C5SO2NC7H21
_chemical_formula_sum              "O3 C20 N2 F3 S1 H21"
_cell_length_a       30
_cell_length_b       30
_cell_length_c       30
_cell_angle_alpha    90
_cell_angle_beta     90
_cell_angle_gamma    90

_space_group_name_H-M_alt    "P 1"
_space_group_IT_number       1

loop_
  _space_group_symop_operation_xyz
  'x, y, z'

loop_
  _atom_site_type_symbol
  _atom_site_label
  _atom_site_symmetry_multiplicity
  _atom_site_fract_x
  _atom_site_fract_y
  _atom_site_fract_z
  _atom_site_occupancy
  O   O1        1.0  0.05562  0.98994  0.05100  1.0000
  C   C1        1.0  0.06908  0.98639  0.01263  1.0000
  N   N1        1.0  0.11242  0.97922  0.99858  1.0000
  C   C2        1.0  0.15088  0.97241  0.02520  1.0000
  C   C3        1.0  0.14840  0.96952  0.07177  1.0000
  C   C4        1.0  0.18653  0.96280  0.09773  1.0000
  C   C5        1.0  0.22798  0.95874  0.07760  1.0000
  C   C6        1.0  0.23120  0.96132  0.03140  1.0000
  C   C7        1.0  0.19302  0.96803  0.00467  1.0000
  C   C8        1.0  0.20032  0.97036  0.95500  1.0000
  F   F1        1.0  0.22605  0.00577  0.94281  1.0000
  F   F2        1.0  0.16196  0.97416  0.93064  1.0000
  F   F3        1.0  0.22131  0.93351  0.93868  1.0000
  C   C9        1.0  0.03587  0.99118  0.97606  1.0000
  C   C10       1.0  0.03771  0.96467  0.93760  1.0000
  C   C11       1.0  0.00569  0.96981  0.90418  1.0000
  C   C12       1.0  0.97146  0.00089  0.90928  1.0000
  C   C13       1.0  0.96907  0.02646  0.94822  1.0000
  S   S1        1.0  0.92582  0.06673  0.95455  1.0000
  O   O2        1.0  0.94442  0.10386  0.97909  1.0000
  O   O3        1.0  0.90586  0.07319  0.91107  1.0000
  N   N2        1.0  0.88807  0.04014  0.98737  1.0000
  C   C14       1.0  0.89918  0.03375  0.03489  1.0000
  C   C15       1.0  0.86037  0.04835  0.06480  1.0000
  C   C16       1.0  0.81471  0.05180  0.04240  1.0000
  C   C17       1.0  0.79684  0.00849  0.02250  1.0000
  C   C18       1.0  0.83055  0.97941  0.99783  1.0000
  C   C19       1.0  0.86158  0.00423  0.96592  1.0000
  C   C20       1.0  0.00147  0.02221  0.98140  1.0000
  H   H1        1.0  0.11755  0.98121  0.96516  1.0000
  H   H2        1.0  0.11689  0.97231  0.08938  1.0000
  H   H3        1.0  0.18353  0.96084  0.13382  1.0000
  H   H4        1.0  0.25763  0.95361  0.09779  1.0000
  H   H5        1.0  0.26390  0.95810  0.01587  1.0000
  H   H6        1.0  0.06343  0.93945  0.93346  1.0000
  H   H7        1.0  0.00733  0.94948  0.87418  1.0000
  H   H8        1.0  0.94682  0.00490  0.88294  1.0000
  H   H9        1.0  0.90831  0.99895  0.04119  1.0000
  H   H10       1.0  0.92848  0.05322  0.04458  1.0000
  H   H11       1.0  0.85849  0.02602  0.09370  1.0000
  H   H12       1.0  0.86837  0.08140  0.07836  1.0000
  H   H13       1.0  0.79050  0.06412  0.06688  1.0000
  H   H14       1.0  0.81592  0.07745  0.01634  1.0000
  H   H15       1.0  0.78202  0.98839  0.04924  1.0000
  H   H16       1.0  0.76938  0.01683  0.99981  1.0000
  H   H17       1.0  0.81212  0.95421  0.97877  1.0000
  H   H18       1.0  0.85010  0.96041  0.02218  1.0000
  H   H19       1.0  0.84138  0.01900  0.93931  1.0000
  H   H20       1.0  0.88408  0.97980  0.95083  1.0000
  H   H21       1.0  0.00031  0.04294  0.01117  1.0000
