data_image0
_chemical_formula_structural       OC7ClCBrCNC3NC2NCOC2H19
_chemical_formula_sum              "O2 C17 Cl1 Br1 N3 H19"
_cell_length_a       30
_cell_length_b       30
_cell_length_c       30
_cell_angle_alpha    90
_cell_angle_beta     90
_cell_angle_gamma    90

_space_group_name_H-M_alt    "P 1"
_space_group_IT_number       1

loop_
  _space_group_symop_operation_xyz
  'x, y, z'

loop_
  _atom_site_type_symbol
  _atom_site_label
  _atom_site_symmetry_multiplicity
  _atom_site_fract_x
  _atom_site_fract_y
  _atom_site_fract_z
  _atom_site_occupancy
  O   O1        1.0  0.03330  0.02437  0.08925  1.0000
  C   C1        1.0  0.03270  0.01142  0.05037  1.0000
  C   C2        1.0  0.07513  0.99885  0.02777  1.0000
  C   C3        1.0  0.11227  0.99320  0.05211  1.0000
  C   C4        1.0  0.15598  0.98194  0.03318  1.0000
  C   C5        1.0  0.19420  0.00075  0.05223  1.0000
  C   C6        1.0  0.23651  0.99034  0.03571  1.0000
  C   C7        1.0  0.24118  0.96066  0.00015  1.0000
  Cl  Cl1       1.0  0.29451  0.94955  0.98153  1.0000
  C   C8        1.0  0.20325  0.94123  0.98127  1.0000
  Br  Br1       1.0  0.20625  0.90018  0.93313  1.0000
  C   C9        1.0  0.16088  0.95172  0.99790  1.0000
  N   N1        1.0  0.99388  0.00814  0.02536  1.0000
  C   C10       1.0  0.95169  0.02081  0.04632  1.0000
  C   C11       1.0  0.92237  0.04695  0.01408  1.0000
  C   C12       1.0  0.91535  0.02247  0.96956  1.0000
  N   N2        1.0  0.86828  0.01392  0.96039  1.0000
  C   C13       1.0  0.84146  0.04399  0.93374  1.0000
  C   C14       1.0  0.79554  0.02241  0.93455  1.0000
  N   N3        1.0  0.79710  0.99492  0.97367  1.0000
  C   C15       1.0  0.84069  0.98755  0.98705  1.0000
  O   O2        1.0  0.85171  0.96267  0.01716  1.0000
  C   C16       1.0  0.94340  0.97989  0.96566  1.0000
  C   C17       1.0  0.99112  0.98825  0.98091  1.0000
  H   H1        1.0  0.07557  0.99591  0.99191  1.0000
  H   H2        1.0  0.11127  0.99778  0.08813  1.0000
  H   H3        1.0  0.19138  0.02396  0.08000  1.0000
  H   H4        1.0  0.26572  0.00555  0.05087  1.0000
  H   H5        1.0  0.13167  0.93582  0.98348  1.0000
  H   H6        1.0  0.95760  0.04098  0.07617  1.0000
  H   H7        1.0  0.93511  0.99015  0.05730  1.0000
  H   H8        1.0  0.89066  0.05520  0.03024  1.0000
  H   H9        1.0  0.93872  0.07894  0.00702  1.0000
  H   H10       1.0  0.92657  0.04490  0.94286  1.0000
  H   H11       1.0  0.84101  0.07657  0.95023  1.0000
  H   H12       1.0  0.85500  0.04724  0.90007  1.0000
  H   H13       1.0  0.79045  0.00060  0.90575  1.0000
  H   H14       1.0  0.76830  0.04647  0.93678  1.0000
  H   H15       1.0  0.77248  0.97502  0.98526  1.0000
  H   H16       1.0  0.92913  0.95290  0.98572  1.0000
  H   H17       1.0  0.94325  0.96794  0.93110  1.0000
  H   H18       1.0  0.00964  0.95678  0.98084  1.0000
  H   H19       1.0  0.00772  0.01111  0.95772  1.0000
