data_image0
_chemical_formula_structural       OCNC2OC2SC10OCOH17
_chemical_formula_sum              "O4 C16 N1 S1 H17"
_cell_length_a       30
_cell_length_b       30
_cell_length_c       30
_cell_angle_alpha    90
_cell_angle_beta     90
_cell_angle_gamma    90

_space_group_name_H-M_alt    "P 1"
_space_group_IT_number       1

loop_
  _space_group_symop_operation_xyz
  'x, y, z'

loop_
  _atom_site_type_symbol
  _atom_site_label
  _atom_site_symmetry_multiplicity
  _atom_site_fract_x
  _atom_site_fract_y
  _atom_site_fract_z
  _atom_site_occupancy
  O   O1        1.0  0.02128  0.01484  0.07599  1.0000
  C   C1        1.0  0.02105  0.01180  0.03511  1.0000
  N   N1        1.0  0.98339  0.01926  0.01044  1.0000
  C   C2        1.0  0.94277  0.03696  0.03001  1.0000
  C   C3        1.0  0.90130  0.02674  0.00113  1.0000
  O   O2        1.0  0.90926  0.04643  0.95812  1.0000
  C   C4        1.0  0.89519  0.97587  0.99563  1.0000
  C   C5        1.0  0.84695  0.96008  0.99147  1.0000
  S   S1        1.0  0.81310  0.99746  0.95835  1.0000
  C   C6        1.0  0.81846  0.04753  0.99225  1.0000
  C   C7        1.0  0.86002  0.04896  0.02173  1.0000
  C   C8        1.0  0.06221  0.99968  0.00963  1.0000
  C   C9        1.0  0.09896  0.99151  0.03396  1.0000
  C   C10       1.0  0.14072  0.97933  0.01268  1.0000
  C   C11       1.0  0.17943  0.97071  0.03704  1.0000
  C   C12       1.0  0.21878  0.95906  0.01492  1.0000
  C   C13       1.0  0.21959  0.95601  0.96847  1.0000
  C   C14       1.0  0.18106  0.96458  0.94398  1.0000
  C   C15       1.0  0.14215  0.97613  0.96649  1.0000
  O   O3        1.0  0.10391  0.98458  0.94081  1.0000
  C   C16       1.0  0.06358  0.99651  0.96039  1.0000
  O   O4        1.0  0.03071  0.00405  0.93718  1.0000
  H   H1        1.0  0.98579  0.02126  0.97650  1.0000
  H   H2        1.0  0.93876  0.02377  0.06385  1.0000
  H   H3        1.0  0.94790  0.07306  0.03255  1.0000
  H   H4        1.0  0.88698  0.03460  0.93755  1.0000
  H   H5        1.0  0.90959  0.95817  0.02423  1.0000
  H   H6        1.0  0.91377  0.96453  0.96619  1.0000
  H   H7        1.0  0.83167  0.95698  0.02449  1.0000
  H   H8        1.0  0.84611  0.92686  0.97637  1.0000
  H   H9        1.0  0.81877  0.07589  0.96924  1.0000
  H   H10       1.0  0.78855  0.05107  0.01286  1.0000
  H   H11       1.0  0.86700  0.08416  0.02892  1.0000
  H   H12       1.0  0.85259  0.03335  0.05399  1.0000
  H   H13       1.0  0.09863  0.99367  0.07012  1.0000
  H   H14       1.0  0.17946  0.97292  0.07323  1.0000
  H   H15       1.0  0.24889  0.95237  0.03397  1.0000
  H   H16       1.0  0.25027  0.94695  0.95142  1.0000
  H   H17       1.0  0.18139  0.96230  0.90785  1.0000
