data_image0
_chemical_formula_structural       OCNC5ClNC6SO2NC2OC3H18
_chemical_formula_sum              "O4 C17 N3 Cl1 S1 H18"
_cell_length_a       30
_cell_length_b       30
_cell_length_c       30
_cell_angle_alpha    90
_cell_angle_beta     90
_cell_angle_gamma    90

_space_group_name_H-M_alt    "P 1"
_space_group_IT_number       1

loop_
  _space_group_symop_operation_xyz
  'x, y, z'

loop_
  _atom_site_type_symbol
  _atom_site_label
  _atom_site_symmetry_multiplicity
  _atom_site_fract_x
  _atom_site_fract_y
  _atom_site_fract_z
  _atom_site_occupancy
  O   O1        1.0  0.06891  0.98769  0.92653  1.0000
  C   C1        1.0  0.05449  0.99154  0.96453  1.0000
  N   N1        1.0  0.07401  0.97200  0.00127  1.0000
  C   C2        1.0  0.11558  0.94791  0.99738  1.0000
  C   C3        1.0  0.15468  0.97776  0.00657  1.0000
  C   C4        1.0  0.17306  0.98165  0.04924  1.0000
  C   C5        1.0  0.20890  0.01030  0.05625  1.0000
  C   C6        1.0  0.22487  0.03419  0.02016  1.0000
  Cl  Cl1       1.0  0.26890  0.07017  0.02603  1.0000
  N   N2        1.0  0.20802  0.03173  0.97861  1.0000
  C   C7        1.0  0.17321  0.00369  0.97278  1.0000
  C   C8        1.0  0.01449  0.01951  0.97320  1.0000
  C   C9        1.0  0.00603  0.05567  0.94487  1.0000
  C   C10       1.0  0.96924  0.08325  0.95220  1.0000
  C   C11       1.0  0.94028  0.07444  0.98746  1.0000
  C   C12       1.0  0.94785  0.03738  0.01472  1.0000
  S   S1        1.0  0.91135  0.02629  0.06025  1.0000
  O   O2        1.0  0.93639  0.00027  0.09228  1.0000
  O   O3        1.0  0.89071  0.06808  0.07261  1.0000
  N   N3        1.0  0.87194  0.99305  0.03776  1.0000
  C   C13       1.0  0.83940  0.01278  0.00587  1.0000
  C   C14       1.0  0.84255  0.98987  0.96033  1.0000
  O   O4        1.0  0.83428  0.94281  0.96194  1.0000
  C   C15       1.0  0.84539  0.92281  0.00394  1.0000
  C   C16       1.0  0.88428  0.94616  0.02738  1.0000
  C   C17       1.0  0.98518  0.01015  0.00822  1.0000
  H   H1        1.0  0.06529  0.98265  0.03203  1.0000
  H   H2        1.0  0.11857  0.93273  0.96428  1.0000
  H   H3        1.0  0.11456  0.92062  0.02163  1.0000
  H   H4        1.0  0.15976  0.96251  0.07700  1.0000
  H   H5        1.0  0.22382  0.01380  0.08897  1.0000
  H   H6        1.0  0.15997  0.00269  0.93900  1.0000
  H   H7        1.0  0.02856  0.06278  0.91729  1.0000
  H   H8        1.0  0.96348  0.11177  0.93055  1.0000
  H   H9        1.0  0.91218  0.09656  0.99350  1.0000
  H   H10       1.0  0.80607  0.00793  0.02004  1.0000
  H   H11       1.0  0.84435  0.04867  0.00195  1.0000
  H   H12       1.0  0.81835  0.00442  0.93723  1.0000
  H   H13       1.0  0.87571  0.99474  0.94580  1.0000
  H   H14       1.0  0.81545  0.92331  0.02488  1.0000
  H   H15       1.0  0.85367  0.88786  0.99753  1.0000
  H   H16       1.0  0.89203  0.92856  0.05838  1.0000
  H   H17       1.0  0.91349  0.94558  0.00555  1.0000
  H   H18       1.0  0.99072  0.98167  0.02991  1.0000
