data_image0
_chemical_formula_structural       OC17ClH11
_chemical_formula_sum              "O1 C17 Cl1 H11"
_cell_length_a       30
_cell_length_b       30
_cell_length_c       30
_cell_angle_alpha    90
_cell_angle_beta     90
_cell_angle_gamma    90

_space_group_name_H-M_alt    "P 1"
_space_group_IT_number       1

loop_
  _space_group_symop_operation_xyz
  'x, y, z'

loop_
  _atom_site_type_symbol
  _atom_site_label
  _atom_site_symmetry_multiplicity
  _atom_site_fract_x
  _atom_site_fract_y
  _atom_site_fract_z
  _atom_site_occupancy
  O   O1        1.0  0.94360  0.04146  0.91676  1.0000
  C   C1        1.0  0.95123  0.02515  0.95348  1.0000
  C   C2        1.0  0.99704  0.01655  0.96972  1.0000
  C   C3        1.0  0.03342  0.03228  0.94893  1.0000
  C   C4        1.0  0.07165  0.01658  0.97405  1.0000
  C   C5        1.0  0.11400  0.02581  0.96347  1.0000
  C   C6        1.0  0.15389  0.01162  0.98649  1.0000
  C   C7        1.0  0.15812  0.98625  0.02305  1.0000
  C   C8        1.0  0.12421  0.96556  0.05032  1.0000
  C   C9        1.0  0.07980  0.96685  0.04567  1.0000
  C   C10       1.0  0.05548  0.98988  0.01137  1.0000
  C   C11       1.0  0.01063  0.99019  0.00808  1.0000
  C   C12       1.0  0.91355  0.01140  0.98174  1.0000
  C   C13       1.0  0.88682  0.97638  0.96617  1.0000
  C   C14       1.0  0.85061  0.96183  0.99145  1.0000
  C   C15       1.0  0.84084  0.98244  0.03196  1.0000
  C   C16       1.0  0.86702  0.01784  0.04712  1.0000
  C   C17       1.0  0.90336  0.03263  0.02196  1.0000
  Cl  Cl1       1.0  0.93339  0.07748  0.04187  1.0000
  H   H1        1.0  0.03423  0.05260  0.91928  1.0000
  H   H2        1.0  0.12037  0.04641  0.93425  1.0000
  H   H3        1.0  0.18455  0.02379  0.97122  1.0000
  H   H4        1.0  0.19195  0.97977  0.03466  1.0000
  H   H5        1.0  0.13742  0.94652  0.07829  1.0000
  H   H6        1.0  0.05982  0.94889  0.07004  1.0000
  H   H7        1.0  0.98787  0.97339  0.03029  1.0000
  H   H8        1.0  0.89414  0.96059  0.93433  1.0000
  H   H9        1.0  0.82987  0.93463  0.97943  1.0000
  H   H10       1.0  0.81248  0.97122  0.05159  1.0000
  H   H11       1.0  0.85865  0.03402  0.07847  1.0000
