data_image0
_chemical_formula_structural       OCNC11OC10NCH18
_chemical_formula_sum              "O2 C23 N2 H18"
_cell_length_a       30
_cell_length_b       30
_cell_length_c       30
_cell_angle_alpha    90
_cell_angle_beta     90
_cell_angle_gamma    90

_space_group_name_H-M_alt    "P 1"
_space_group_IT_number       1

loop_
  _space_group_symop_operation_xyz
  'x, y, z'

loop_
  _atom_site_type_symbol
  _atom_site_label
  _atom_site_symmetry_multiplicity
  _atom_site_fract_x
  _atom_site_fract_y
  _atom_site_fract_z
  _atom_site_occupancy
  O   O1        1.0  0.14304  0.94767  0.06939  1.0000
  C   C1        1.0  0.13152  0.96823  0.03605  1.0000
  N   N1        1.0  0.15879  0.99188  0.00734  1.0000
  C   C2        1.0  0.20500  0.99958  0.01179  1.0000
  C   C3        1.0  0.22631  0.02218  0.97688  1.0000
  C   C4        1.0  0.27195  0.03129  0.97877  1.0000
  C   C5        1.0  0.29675  0.01796  0.01564  1.0000
  C   C6        1.0  0.27587  0.99561  0.05055  1.0000
  C   C7        1.0  0.23017  0.98648  0.04866  1.0000
  C   C8        1.0  0.08366  0.96718  0.02359  1.0000
  C   C9        1.0  0.06216  0.00197  0.00144  1.0000
  C   C10       1.0  0.01696  0.99798  0.99119  1.0000
  C   C11       1.0  0.99404  0.95951  0.00381  1.0000
  C   C12       1.0  0.94525  0.95343  0.99231  1.0000
  O   O2        1.0  0.92163  0.99437  0.99852  1.0000
  C   C13       1.0  0.87723  0.99444  0.98815  1.0000
  C   C14       1.0  0.85258  0.95805  0.97316  1.0000
  C   C15       1.0  0.80718  0.96289  0.96363  1.0000
  C   C16       1.0  0.78571  0.00410  0.96897  1.0000
  C   C17       1.0  0.74017  0.00941  0.95953  1.0000
  C   C18       1.0  0.71940  0.05067  0.96511  1.0000
  C   C19       1.0  0.74387  0.08709  0.98020  1.0000
  C   C20       1.0  0.78916  0.08233  0.98972  1.0000
  C   C21       1.0  0.81055  0.04104  0.98426  1.0000
  C   C22       1.0  0.85610  0.03561  0.99367  1.0000
  N   N2        1.0  0.01454  0.92536  0.02531  1.0000
  C   C23       1.0  0.05845  0.93016  0.03520  1.0000
  H   H1        1.0  0.14507  0.00321  0.97873  1.0000
  H   H2        1.0  0.20780  0.03296  0.94768  1.0000
  H   H3        1.0  0.28811  0.04877  0.95145  1.0000
  H   H4        1.0  0.33226  0.02497  0.01725  1.0000
  H   H5        1.0  0.29503  0.98516  0.07948  1.0000
  H   H6        1.0  0.21527  0.96916  0.07672  1.0000
  H   H7        1.0  0.07944  0.03260  0.99291  1.0000
  H   H8        1.0  0.99970  0.02483  0.97407  1.0000
  H   H9        1.0  0.93119  0.92765  0.01408  1.0000
  H   H10       1.0  0.94333  0.94280  0.95738  1.0000
  H   H11       1.0  0.86736  0.92537  0.96858  1.0000
  H   H12       1.0  0.78857  0.93400  0.95201  1.0000
  H   H13       1.0  0.72048  0.98134  0.94776  1.0000
  H   H14       1.0  0.68412  0.05432  0.95771  1.0000
  H   H15       1.0  0.72773  0.11922  0.98461  1.0000
  H   H16       1.0  0.80772  0.11115  0.00153  1.0000
  H   H17       1.0  0.87560  0.06377  0.00557  1.0000
  H   H18       1.0  0.07317  0.90225  0.05307  1.0000
