data_image0
_chemical_formula_structural       OCNC3NC2OC2NC10H27
_chemical_formula_sum              "O2 C18 N3 H27"
_cell_length_a       30
_cell_length_b       30
_cell_length_c       30
_cell_angle_alpha    90
_cell_angle_beta     90
_cell_angle_gamma    90

_space_group_name_H-M_alt    "P 1"
_space_group_IT_number       1

loop_
  _space_group_symop_operation_xyz
  'x, y, z'

loop_
  _atom_site_type_symbol
  _atom_site_label
  _atom_site_symmetry_multiplicity
  _atom_site_fract_x
  _atom_site_fract_y
  _atom_site_fract_z
  _atom_site_occupancy
  O   O1        1.0  0.02965  0.95514  0.92288  1.0000
  C   C1        1.0  0.02287  0.98284  0.95198  1.0000
  N   N1        1.0  0.98129  0.99632  0.96566  1.0000
  C   C2        1.0  0.94219  0.97943  0.94283  1.0000
  C   C3        1.0  0.89929  0.98827  0.96884  1.0000
  C   C4        1.0  0.89719  0.96076  0.01181  1.0000
  N   N2        1.0  0.85714  0.96468  0.03932  1.0000
  C   C5        1.0  0.81622  0.94535  0.02066  1.0000
  C   C6        1.0  0.78598  0.97817  0.99548  1.0000
  O   O2        1.0  0.77695  0.01718  0.02143  1.0000
  C   C7        1.0  0.81771  0.03923  0.03279  1.0000
  C   C8        1.0  0.84893  0.00854  0.05941  1.0000
  N   N3        1.0  0.05561  0.00431  0.97526  1.0000
  C   C9        1.0  0.10268  0.99530  0.96748  1.0000
  C   C10       1.0  0.11850  0.02332  0.92758  1.0000
  C   C11       1.0  0.16911  0.02460  0.92477  1.0000
  C   C12       1.0  0.18815  0.04705  0.96621  1.0000
  C   C13       1.0  0.17020  0.02720  0.00878  1.0000
  C   C14       1.0  0.19409  0.03374  0.04849  1.0000
  C   C15       1.0  0.17904  0.01558  0.08852  1.0000
  C   C16       1.0  0.14002  0.99058  0.08933  1.0000
  C   C17       1.0  0.11573  0.98427  0.05019  1.0000
  C   C18       1.0  0.12982  0.00325  0.00963  1.0000
  H   H1        1.0  0.98026  0.02856  0.97525  1.0000
  H   H2        1.0  0.94633  0.94369  0.93647  1.0000
  H   H3        1.0  0.94067  0.99622  0.91042  1.0000
  H   H4        1.0  0.87125  0.97961  0.94719  1.0000
  H   H5        1.0  0.89711  0.02389  0.97641  1.0000
  H   H6        1.0  0.90193  0.92543  0.00350  1.0000
  H   H7        1.0  0.92593  0.96926  0.03280  1.0000
  H   H8        1.0  0.79706  0.93249  0.04907  1.0000
  H   H9        1.0  0.82355  0.91636  0.99966  1.0000
  H   H10       1.0  0.80032  0.98822  0.96349  1.0000
  H   H11       1.0  0.75395  0.96217  0.98836  1.0000
  H   H12       1.0  0.83341  0.05163  0.00228  1.0000
  H   H13       1.0  0.80908  0.06833  0.05306  1.0000
  H   H14       1.0  0.88026  0.02583  0.06685  1.0000
  H   H15       1.0  0.83306  0.00225  0.09178  1.0000
  H   H16       1.0  0.04703  0.02022  0.00358  1.0000
  H   H17       1.0  0.10654  0.95992  0.95885  1.0000
  H   H18       1.0  0.10463  0.00974  0.89660  1.0000
  H   H19       1.0  0.10581  0.05758  0.93031  1.0000
  H   H20       1.0  0.18219  0.99059  0.92163  1.0000
  H   H21       1.0  0.17956  0.04297  0.89498  1.0000
  H   H22       1.0  0.17999  0.08270  0.96582  1.0000
  H   H23       1.0  0.22457  0.04401  0.96542  1.0000
  H   H24       1.0  0.22493  0.05283  0.04829  1.0000
  H   H25       1.0  0.19802  0.02060  0.11897  1.0000
  H   H26       1.0  0.12856  0.97580  0.12036  1.0000
  H   H27       1.0  0.08563  0.96402  0.05137  1.0000
