data_image0
_chemical_formula_structural       OCNC12ONC9H28
_chemical_formula_sum              "O2 C22 N2 H28"
_cell_length_a       30
_cell_length_b       30
_cell_length_c       30
_cell_angle_alpha    90
_cell_angle_beta     90
_cell_angle_gamma    90

_space_group_name_H-M_alt    "P 1"
_space_group_IT_number       1

loop_
  _space_group_symop_operation_xyz
  'x, y, z'

loop_
  _atom_site_type_symbol
  _atom_site_label
  _atom_site_symmetry_multiplicity
  _atom_site_fract_x
  _atom_site_fract_y
  _atom_site_fract_z
  _atom_site_occupancy
  O   O1        1.0  0.04591  0.09176  0.05434  1.0000
  C   C1        1.0  0.03218  0.05435  0.04497  1.0000
  N   N1        1.0  0.05644  0.02066  0.02497  1.0000
  C   C2        1.0  0.10152  0.02156  0.01156  1.0000
  C   C3        1.0  0.12983  0.05839  0.01751  1.0000
  C   C4        1.0  0.17439  0.05705  0.00362  1.0000
  C   C5        1.0  0.19006  0.01870  0.98346  1.0000
  C   C6        1.0  0.23623  0.00903  0.96726  1.0000
  C   C7        1.0  0.22787  0.96839  0.93728  1.0000
  C   C8        1.0  0.18719  0.94404  0.95659  1.0000
  C   C9        1.0  0.16224  0.98190  0.97741  1.0000
  C   C10       1.0  0.11821  0.98276  0.99143  1.0000
  C   C11       1.0  0.98409  0.04202  0.05607  1.0000
  C   C12       1.0  0.98111  0.00403  0.08985  1.0000
  C   C13       1.0  0.97177  0.96351  0.06157  1.0000
  O   O2        1.0  0.97195  0.92507  0.07475  1.0000
  N   N2        1.0  0.96307  0.97763  0.01836  1.0000
  C   C14       1.0  0.94549  0.94792  0.98418  1.0000
  C   C15       1.0  0.89687  0.93336  0.99143  1.0000
  C   C16       1.0  0.86259  0.97032  0.98875  1.0000
  C   C17       1.0  0.83925  0.98317  0.02487  1.0000
  C   C18       1.0  0.80344  0.01810  0.02403  1.0000
  C   C19       1.0  0.78803  0.02987  0.97692  1.0000
  C   C20       1.0  0.82756  0.03419  0.94531  1.0000
  C   C21       1.0  0.85463  0.99096  0.94349  1.0000
  C   C22       1.0  0.95860  0.02551  0.01566  1.0000
  H   H1        1.0  0.04007  0.99186  0.01818  1.0000
  H   H2        1.0  0.11818  0.08883  0.03323  1.0000
  H   H3        1.0  0.19595  0.08563  0.00882  1.0000
  H   H4        1.0  0.25054  0.03676  0.94841  1.0000
  H   H5        1.0  0.25787  0.00045  0.99536  1.0000
  H   H6        1.0  0.25711  0.94674  0.93466  1.0000
  H   H7        1.0  0.21995  0.97993  0.90342  1.0000
  H   H8        1.0  0.16803  0.92736  0.93046  1.0000
  H   H9        1.0  0.19713  0.91999  0.98217  1.0000
  H   H10       1.0  0.09745  0.95349  0.98680  1.0000
  H   H11       1.0  0.96849  0.07230  0.06938  1.0000
  H   H12       1.0  0.95287  0.00882  0.11245  1.0000
  H   H13       1.0  0.01178  0.99937  0.10898  1.0000
  H   H14       1.0  0.95035  0.96366  0.95162  1.0000
  H   H15       1.0  0.96627  0.91784  0.98474  1.0000
  H   H16       1.0  0.88841  0.90824  0.96621  1.0000
  H   H17       1.0  0.89426  0.91625  0.02366  1.0000
  H   H18       1.0  0.84572  0.96776  0.05708  1.0000
  H   H19       1.0  0.77471  0.00650  0.04337  1.0000
  H   H20       1.0  0.81619  0.04802  0.04071  1.0000
  H   H21       1.0  0.76544  0.00388  0.96455  1.0000
  H   H22       1.0  0.76897  0.06101  0.97761  1.0000
  H   H23       1.0  0.84906  0.06163  0.95644  1.0000
  H   H24       1.0  0.81593  0.04279  0.91177  1.0000
  H   H25       1.0  0.83710  0.96655  0.92265  1.0000
  H   H26       1.0  0.88639  0.99823  0.92701  1.0000
  H   H27       1.0  0.97188  0.03750  0.98387  1.0000
  H   H28       1.0  0.92335  0.03436  0.01831  1.0000
