data_image0
_chemical_formula_structural       OCNC2NC2NC5ClC4ClH13
_chemical_formula_sum              "O1 C14 N3 Cl2 H13"
_cell_length_a       30
_cell_length_b       30
_cell_length_c       30
_cell_angle_alpha    90
_cell_angle_beta     90
_cell_angle_gamma    90

_space_group_name_H-M_alt    "P 1"
_space_group_IT_number       1

loop_
  _space_group_symop_operation_xyz
  'x, y, z'

loop_
  _atom_site_type_symbol
  _atom_site_label
  _atom_site_symmetry_multiplicity
  _atom_site_fract_x
  _atom_site_fract_y
  _atom_site_fract_z
  _atom_site_occupancy
  O   O1        1.0  0.98610  0.05400  0.06756  1.0000
  C   C1        1.0  0.97371  0.03456  0.03391  1.0000
  N   N1        1.0  0.00059  0.01031  0.00616  1.0000
  C   C2        1.0  0.04757  0.00362  0.01487  1.0000
  C   C3        1.0  0.06942  0.99822  0.97004  1.0000
  N   N2        1.0  0.05250  0.97882  0.93422  1.0000
  C   C4        1.0  0.08458  0.98249  0.90191  1.0000
  C   C5        1.0  0.12134  0.00458  0.91795  1.0000
  N   N3        1.0  0.11126  0.01462  0.96123  1.0000
  C   C6        1.0  0.05231  0.96562  0.04761  1.0000
  C   C7        1.0  0.04356  0.91780  0.03436  1.0000
  C   C8        1.0  0.09006  0.93222  0.04648  1.0000
  C   C9        1.0  0.92664  0.03630  0.02057  1.0000
  C   C10       1.0  0.91057  0.07301  0.99671  1.0000
  Cl  Cl1       1.0  0.94449  0.11668  0.98062  1.0000
  C   C11       1.0  0.86561  0.07486  0.98451  1.0000
  C   C12       1.0  0.83676  0.04029  0.99614  1.0000
  C   C13       1.0  0.85279  0.00374  0.02000  1.0000
  C   C14       1.0  0.89770  0.00165  0.03233  1.0000
  Cl  Cl2       1.0  0.91524  0.95540  0.06184  1.0000
  H   H1        1.0  0.98837  0.99411  0.97913  1.0000
  H   H2        1.0  0.06062  0.03386  0.03080  1.0000
  H   H3        1.0  0.07948  0.96910  0.86880  1.0000
  H   H4        1.0  0.15268  0.01381  0.90280  1.0000
  H   H5        1.0  0.13087  0.03115  0.98310  1.0000
  H   H6        1.0  0.04052  0.97573  0.08036  1.0000
  H   H7        1.0  0.02544  0.89702  0.05772  1.0000
  H   H8        1.0  0.03665  0.91031  0.99967  1.0000
  H   H9        1.0  0.11444  0.93321  0.01988  1.0000
  H   H10       1.0  0.10342  0.92086  0.07810  1.0000
  H   H11       1.0  0.85286  0.10325  0.96588  1.0000
  H   H12       1.0  0.80179  0.04185  0.98664  1.0000
  H   H13       1.0  0.83006  0.97695  0.02901  1.0000
