data_image0
_chemical_formula_structural       OCOC10NC3NC8SC3SC2H26
_chemical_formula_sum              "O2 C27 N2 S2 H26"
_cell_length_a       30
_cell_length_b       30
_cell_length_c       30
_cell_angle_alpha    90
_cell_angle_beta     90
_cell_angle_gamma    90

_space_group_name_H-M_alt    "P 1"
_space_group_IT_number       1

loop_
  _space_group_symop_operation_xyz
  'x, y, z'

loop_
  _atom_site_type_symbol
  _atom_site_label
  _atom_site_symmetry_multiplicity
  _atom_site_fract_x
  _atom_site_fract_y
  _atom_site_fract_z
  _atom_site_occupancy
  O   O1        1.0  0.13568  0.03704  0.93107  1.0000
  C   C1        1.0  0.13495  0.00995  0.96153  1.0000
  O   O2        1.0  0.16413  0.00920  0.99626  1.0000
  C   C2        1.0  0.19679  0.04396  0.99480  1.0000
  C   C3        1.0  0.22753  0.03956  0.03439  1.0000
  C   C4        1.0  0.27371  0.04455  0.02906  1.0000
  C   C5        1.0  0.30222  0.04146  0.06572  1.0000
  C   C6        1.0  0.28489  0.03364  0.10811  1.0000
  C   C7        1.0  0.23905  0.02902  0.11392  1.0000
  C   C8        1.0  0.21050  0.03212  0.07731  1.0000
  C   C9        1.0  0.10174  0.97219  0.96623  1.0000
  C   C10       1.0  0.07192  0.97967  0.00723  1.0000
  C   C11       1.0  0.02346  0.96535  0.99980  1.0000
  N   N1        1.0  0.02251  0.92417  0.97409  1.0000
  C   C12       1.0  0.98086  0.89871  0.97733  1.0000
  C   C13       1.0  0.93991  0.92135  0.95982  1.0000
  C   C14       1.0  0.92204  0.92043  0.91747  1.0000
  N   N2        1.0  0.88312  0.94418  0.91156  1.0000
  C   C15       1.0  0.87044  0.96275  0.94942  1.0000
  C   C16       1.0  0.83011  0.99072  0.95401  1.0000
  C   C17       1.0  0.81352  0.00575  0.99521  1.0000
  C   C18       1.0  0.77487  0.03218  0.99803  1.0000
  C   C19       1.0  0.75900  0.04748  0.04175  1.0000
  C   C20       1.0  0.78330  0.06605  0.07629  1.0000
  C   C21       1.0  0.75652  0.07625  0.11418  1.0000
  C   C22       1.0  0.71253  0.06501  0.10758  1.0000
  S   S1        1.0  0.70380  0.04222  0.05611  1.0000
  C   C23       1.0  0.75267  0.04385  0.95866  1.0000
  C   C24       1.0  0.76846  0.02925  0.91750  1.0000
  C   C25       1.0  0.80674  0.00292  0.91530  1.0000
  S   S2        1.0  0.90553  0.95195  0.99371  1.0000
  C   C26       1.0  0.03969  0.92915  0.92868  1.0000
  C   C27       1.0  0.07368  0.96701  0.92399  1.0000
  H   H1        1.0  0.21585  0.04110  0.96374  1.0000
  H   H2        1.0  0.18044  0.07661  0.99616  1.0000
  H   H3        1.0  0.28787  0.05084  0.99626  1.0000
  H   H4        1.0  0.33798  0.04520  0.06119  1.0000
  H   H5        1.0  0.30710  0.03120  0.13661  1.0000
  H   H6        1.0  0.22547  0.02300  0.14698  1.0000
  H   H7        1.0  0.17477  0.02854  0.08239  1.0000
  H   H8        1.0  0.12109  0.94138  0.97053  1.0000
  H   H9        1.0  0.08599  0.96070  0.03521  1.0000
  H   H10       1.0  0.07221  0.01473  0.01771  1.0000
  H   H11       1.0  0.00495  0.99198  0.98288  1.0000
  H   H12       1.0  0.00811  0.96075  0.03266  1.0000
  H   H13       1.0  0.98515  0.86688  0.95974  1.0000
  H   H14       1.0  0.97567  0.88918  0.01229  1.0000
  H   H15       1.0  0.93623  0.90287  0.88929  1.0000
  H   H16       1.0  0.83019  0.99653  0.02605  1.0000
  H   H17       1.0  0.81882  0.07237  0.07439  1.0000
  H   H18       1.0  0.76890  0.09109  0.14468  1.0000
  H   H19       1.0  0.68501  0.06896  0.13052  1.0000
  H   H20       1.0  0.72300  0.06467  0.95965  1.0000
  H   H21       1.0  0.75102  0.03837  0.88707  1.0000
  H   H22       1.0  0.81850  0.99181  0.88278  1.0000
  H   H23       1.0  0.01317  0.93543  0.90439  1.0000
  H   H24       1.0  0.05556  0.89766  0.91904  1.0000
  H   H25       1.0  0.05598  0.99833  0.91707  1.0000
  H   H26       1.0  0.09508  0.96075  0.89501  1.0000
