data_image0
_chemical_formula_structural       OC2OC6NC2NCOC4SH14
_chemical_formula_sum              "O3 C15 N2 S1 H14"
_cell_length_a       30
_cell_length_b       30
_cell_length_c       30
_cell_angle_alpha    90
_cell_angle_beta     90
_cell_angle_gamma    90

_space_group_name_H-M_alt    "P 1"
_space_group_IT_number       1

loop_
  _space_group_symop_operation_xyz
  'x, y, z'

loop_
  _atom_site_type_symbol
  _atom_site_label
  _atom_site_symmetry_multiplicity
  _atom_site_fract_x
  _atom_site_fract_y
  _atom_site_fract_z
  _atom_site_occupancy
  O   O1        1.0  0.08903  0.03155  0.04933  1.0000
  C   C1        1.0  0.08324  0.00448  0.01892  1.0000
  C   C2        1.0  0.03621  0.98791  0.00716  1.0000
  O   O2        1.0  0.00174  0.00682  0.03429  1.0000
  C   C3        1.0  0.97779  0.03796  0.01068  1.0000
  C   C4        1.0  0.99668  0.08055  0.00672  1.0000
  C   C5        1.0  0.97568  0.11312  0.98132  1.0000
  C   C6        1.0  0.93570  0.10320  0.96018  1.0000
  C   C7        1.0  0.91627  0.06104  0.96515  1.0000
  C   C8        1.0  0.93631  0.02762  0.99108  1.0000
  N   N1        1.0  0.91445  0.98596  0.99739  1.0000
  C   C9        1.0  0.92606  0.95456  0.03217  1.0000
  C   C10       1.0  0.88584  0.92385  0.03477  1.0000
  N   N2        1.0  0.86524  0.92899  0.99206  1.0000
  C   C11       1.0  0.87813  0.96926  0.97281  1.0000
  O   O3        1.0  0.85907  0.98472  0.94040  1.0000
  C   C12       1.0  0.12090  0.98714  0.99325  1.0000
  C   C13       1.0  0.16523  0.99881  0.99864  1.0000
  C   C14       1.0  0.19404  0.97606  0.96853  1.0000
  C   C15       1.0  0.17089  0.94760  0.94102  1.0000
  S   S1        1.0  0.11496  0.94848  0.95168  1.0000
  H   H1        1.0  0.03542  0.95195  0.01354  1.0000
  H   H2        1.0  0.02989  0.99325  0.97150  1.0000
  H   H3        1.0  0.02786  0.08835  0.02348  1.0000
  H   H4        1.0  0.99042  0.14604  0.97807  1.0000
  H   H5        1.0  0.91896  0.12838  0.94019  1.0000
  H   H6        1.0  0.88434  0.05571  0.94892  1.0000
  H   H7        1.0  0.93202  0.97094  0.06419  1.0000
  H   H8        1.0  0.95542  0.93569  0.02153  1.0000
  H   H9        1.0  0.89453  0.88900  0.04080  1.0000
  H   H10       1.0  0.86209  0.93514  0.06008  1.0000
  H   H11       1.0  0.83524  0.91638  0.98321  1.0000
  H   H12       1.0  0.17633  0.02282  0.02331  1.0000
  H   H13       1.0  0.22987  0.98039  0.96716  1.0000
  H   H14       1.0  0.18415  0.92628  0.91513  1.0000
