data_image0
_chemical_formula_structural       OCNC5NCNC3NC4ON2C5SCNC4NH32
_chemical_formula_sum              "O2 C24 N8 S1 H32"
_cell_length_a       30
_cell_length_b       30
_cell_length_c       30
_cell_angle_alpha    90
_cell_angle_beta     90
_cell_angle_gamma    90

_space_group_name_H-M_alt    "P 1"
_space_group_IT_number       1

loop_
  _space_group_symop_operation_xyz
  'x, y, z'

loop_
  _atom_site_type_symbol
  _atom_site_label
  _atom_site_symmetry_multiplicity
  _atom_site_fract_x
  _atom_site_fract_y
  _atom_site_fract_z
  _atom_site_occupancy
  O   O1        1.0  0.03391  0.03046  0.98892  1.0000
  C   C1        1.0  0.01537  0.99387  0.98641  1.0000
  N   N1        1.0  0.03708  0.95444  0.99605  1.0000
  C   C2        1.0  0.08227  0.95357  0.01390  1.0000
  C   C3        1.0  0.11475  0.92886  0.98277  1.0000
  C   C4        1.0  0.12029  0.95333  0.93778  1.0000
  C   C5        1.0  0.16899  0.95599  0.92306  1.0000
  C   C6        1.0  0.19720  0.97889  0.95894  1.0000
  N   N2        1.0  0.18671  0.96128  0.00298  1.0000
  C   C7        1.0  0.21070  0.97684  0.03892  1.0000
  N   N3        1.0  0.20352  0.95888  0.07938  1.0000
  C   C8        1.0  0.22631  0.97575  0.11420  1.0000
  C   C9        1.0  0.25632  0.00993  0.11061  1.0000
  C   C10       1.0  0.26186  0.02614  0.06826  1.0000
  N   N4        1.0  0.23981  0.01033  0.03251  1.0000
  C   C11       1.0  0.15965  0.92146  0.00674  1.0000
  C   C12       1.0  0.96732  0.98921  0.96836  1.0000
  C   C13       1.0  0.93954  0.95468  0.99236  1.0000
  C   C14       1.0  0.89154  0.95579  0.97696  1.0000
  O   O2        1.0  0.87056  0.92057  0.97381  1.0000
  N   N5        1.0  0.87308  0.99858  0.97027  1.0000
  N   N6        1.0  0.82879  0.99915  0.95656  1.0000
  C   C15       1.0  0.79791  0.98594  0.98432  1.0000
  C   C16       1.0  0.80103  0.97611  0.03159  1.0000
  C   C17       1.0  0.83241  0.98830  0.06303  1.0000
  C   C18       1.0  0.82308  0.97047  0.10608  1.0000
  C   C19       1.0  0.78427  0.94606  0.10646  1.0000
  S   S1        1.0  0.75929  0.94498  0.05528  1.0000
  C   C20       1.0  0.90274  0.03172  0.95029  1.0000
  N   N7        1.0  0.88767  0.07750  0.95185  1.0000
  C   C21       1.0  0.86957  0.09408  0.99370  1.0000
  C   C22       1.0  0.85463  0.14056  0.98015  1.0000
  C   C23       1.0  0.83720  0.13473  0.93284  1.0000
  C   C24       1.0  0.85710  0.09082  0.91650  1.0000
  N   N8        1.0  0.94424  0.03179  0.97454  1.0000
  H   H1        1.0  0.02105  0.92501  0.99356  1.0000
  H   H2        1.0  0.07989  0.93601  0.04590  1.0000
  H   H3        1.0  0.09405  0.98739  0.02101  1.0000
  H   H4        1.0  0.10061  0.89577  0.97594  1.0000
  H   H5        1.0  0.10723  0.98745  0.93995  1.0000
  H   H6        1.0  0.10037  0.93638  0.91216  1.0000
  H   H7        1.0  0.18185  0.92239  0.91673  1.0000
  H   H8        1.0  0.17165  0.97441  0.89162  1.0000
  H   H9        1.0  0.23257  0.97415  0.95108  1.0000
  H   H10       1.0  0.19021  0.01478  0.95811  1.0000
  H   H11       1.0  0.21924  0.96034  0.14617  1.0000
  H   H12       1.0  0.27419  0.02312  0.13894  1.0000
  H   H13       1.0  0.28475  0.05329  0.06142  1.0000
  H   H14       1.0  0.15326  0.91105  0.04122  1.0000
  H   H15       1.0  0.17744  0.89347  0.99119  1.0000
  H   H16       1.0  0.97059  0.98116  0.93280  1.0000
  H   H17       1.0  0.95232  0.92114  0.98563  1.0000
  H   H18       1.0  0.94001  0.95963  0.02859  1.0000
  H   H19       1.0  0.76423  0.98338  0.96968  1.0000
  H   H20       1.0  0.86117  0.00891  0.05589  1.0000
  H   H21       1.0  0.84391  0.97530  0.13511  1.0000
  H   H22       1.0  0.76945  0.92874  0.13439  1.0000
  H   H23       1.0  0.90878  0.02202  0.91548  1.0000
  H   H24       1.0  0.84081  0.07490  0.00546  1.0000
  H   H25       1.0  0.89446  0.09574  0.02043  1.0000
  H   H26       1.0  0.82947  0.15440  0.00261  1.0000
  H   H27       1.0  0.88321  0.16328  0.98000  1.0000
  H   H28       1.0  0.80070  0.13292  0.93277  1.0000
  H   H29       1.0  0.84727  0.16284  0.91191  1.0000
  H   H30       1.0  0.87503  0.09551  0.88503  1.0000
  H   H31       1.0  0.83025  0.06684  0.91039  1.0000
  H   H32       1.0  0.96329  0.05724  0.96253  1.0000
