data_image0
_chemical_formula_structural       OC7ClNC5FC2SO2C5FCH14
_chemical_formula_sum              "O3 C20 Cl1 N1 F2 S1 H14"
_cell_length_a       30
_cell_length_b       30
_cell_length_c       30
_cell_angle_alpha    90
_cell_angle_beta     90
_cell_angle_gamma    90

_space_group_name_H-M_alt    "P 1"
_space_group_IT_number       1

loop_
  _space_group_symop_operation_xyz
  'x, y, z'

loop_
  _atom_site_type_symbol
  _atom_site_label
  _atom_site_symmetry_multiplicity
  _atom_site_fract_x
  _atom_site_fract_y
  _atom_site_fract_z
  _atom_site_occupancy
  O   O1        1.0  0.99573  0.93068  0.94264  1.0000
  C   C1        1.0  0.98742  0.96501  0.96295  1.0000
  C   C2        1.0  0.94166  0.97189  0.97902  1.0000
  C   C3        1.0  0.92719  0.94688  0.01575  1.0000
  C   C4        1.0  0.88370  0.95196  0.03137  1.0000
  C   C5        1.0  0.85464  0.98130  0.00998  1.0000
  C   C6        1.0  0.86877  0.00521  0.97258  1.0000
  C   C7        1.0  0.91225  0.00025  0.95665  1.0000
  Cl  Cl1       1.0  0.92729  0.02917  0.90929  1.0000
  N   N1        1.0  0.01943  0.99814  0.97451  1.0000
  C   C8        1.0  0.01785  0.02343  0.01713  1.0000
  C   C9        1.0  0.98769  0.06379  0.01611  1.0000
  C   C10       1.0  0.95367  0.06888  0.04790  1.0000
  C   C11       1.0  0.92589  0.10619  0.04690  1.0000
  C   C12       1.0  0.93228  0.13863  0.01447  1.0000
  F   F1        1.0  0.90551  0.17434  0.01356  1.0000
  C   C13       1.0  0.96609  0.13459  0.98312  1.0000
  C   C14       1.0  0.99392  0.09732  0.98402  1.0000
  S   S1        1.0  0.07069  0.99647  0.95012  1.0000
  O   O2        1.0  0.06709  0.98092  0.90464  1.0000
  O   O3        1.0  0.09313  0.03828  0.95939  1.0000
  C   C15       1.0  0.09860  0.95452  0.98152  1.0000
  C   C16       1.0  0.09596  0.90994  0.96800  1.0000
  C   C17       1.0  0.11850  0.87711  0.99209  1.0000
  C   C18       1.0  0.14392  0.88898  0.02916  1.0000
  C   C19       1.0  0.14690  0.93356  0.04167  1.0000
  F   F2        1.0  0.17158  0.94477  0.07713  1.0000
  C   C20       1.0  0.12472  0.96666  0.01809  1.0000
  H   H1        1.0  0.94957  0.92342  0.03199  1.0000
  H   H2        1.0  0.87225  0.93278  0.05995  1.0000
  H   H3        1.0  0.82065  0.98517  0.02204  1.0000
  H   H4        1.0  0.84556  0.02745  0.95579  1.0000
  H   H5        1.0  0.05079  0.03496  0.02781  1.0000
  H   H6        1.0  0.00740  0.00042  0.04359  1.0000
  H   H7        1.0  0.94829  0.04379  0.07351  1.0000
  H   H8        1.0  0.89936  0.11022  0.07116  1.0000
  H   H9        1.0  0.97062  0.16036  0.95812  1.0000
  H   H10       1.0  0.02034  0.09452  0.95928  1.0000
  H   H11       1.0  0.07650  0.90058  0.93879  1.0000
  H   H12       1.0  0.11639  0.84242  0.98176  1.0000
  H   H13       1.0  0.16174  0.86384  0.04813  1.0000
  H   H14       1.0  0.12845  0.00118  0.02830  1.0000
