data_image0
_chemical_formula_structural       OC2NC2NCOC5ClC2N2C5SH15
_chemical_formula_sum              "O2 C17 N4 Cl1 S1 H15"
_cell_length_a       30
_cell_length_b       30
_cell_length_c       30
_cell_angle_alpha    90
_cell_angle_beta     90
_cell_angle_gamma    90

_space_group_name_H-M_alt    "P 1"
_space_group_IT_number       1

loop_
  _space_group_symop_operation_xyz
  'x, y, z'

loop_
  _atom_site_type_symbol
  _atom_site_label
  _atom_site_symmetry_multiplicity
  _atom_site_fract_x
  _atom_site_fract_y
  _atom_site_fract_z
  _atom_site_occupancy
  O   O1        1.0  0.09759  0.10000  0.04601  1.0000
  C   C1        1.0  0.08960  0.07751  0.01270  1.0000
  C   C2        1.0  0.05274  0.08957  0.98049  1.0000
  N   N1        1.0  0.02130  0.05327  0.97501  1.0000
  C   C3        1.0  0.97891  0.05107  0.99133  1.0000
  C   C4        1.0  0.96187  0.01075  0.97787  1.0000
  N   N2        1.0  0.92016  0.99280  0.98596  1.0000
  C   C5        1.0  0.88752  0.01265  0.01177  1.0000
  O   O2        1.0  0.89072  0.04778  0.03238  1.0000
  C   C6        1.0  0.84501  0.98725  0.01507  1.0000
  C   C7        1.0  0.82140  0.98859  0.05537  1.0000
  C   C8        1.0  0.78137  0.96531  0.05987  1.0000
  C   C9        1.0  0.76463  0.94092  0.02400  1.0000
  C   C10       1.0  0.78783  0.94016  0.98373  1.0000
  Cl  Cl1       1.0  0.76675  0.91051  0.93937  1.0000
  C   C11       1.0  0.82788  0.96327  0.97889  1.0000
  C   C12       1.0  0.99687  0.99107  0.95321  1.0000
  N   N3        1.0  0.03320  0.01679  0.95130  1.0000
  N   N4        1.0  0.11473  0.04094  0.00071  1.0000
  C   C13       1.0  0.14724  0.02285  0.03117  1.0000
  C   C14       1.0  0.17365  0.98812  0.00723  1.0000
  C   C15       1.0  0.21078  0.99388  0.98059  1.0000
  C   C16       1.0  0.22709  0.95283  0.96317  1.0000
  C   C17       1.0  0.20193  0.91706  0.97711  1.0000
  S   S1        1.0  0.15881  0.93305  0.01075  1.0000
  H   H1        1.0  0.03459  0.11866  0.99296  1.0000
  H   H2        1.0  0.06677  0.09760  0.94778  1.0000
  H   H3        1.0  0.96482  0.07786  0.01093  1.0000
  H   H4        1.0  0.91477  0.96195  0.97348  1.0000
  H   H5        1.0  0.83426  0.00783  0.08336  1.0000
  H   H6        1.0  0.76323  0.96637  0.09124  1.0000
  H   H7        1.0  0.73336  0.92293  0.02754  1.0000
  H   H8        1.0  0.84467  0.96321  0.94683  1.0000
  H   H9        1.0  0.99744  0.95907  0.93657  1.0000
  H   H10       1.0  0.09999  0.01927  0.97897  1.0000
  H   H11       1.0  0.12958  0.00933  0.06015  1.0000
  H   H12       1.0  0.16889  0.04981  0.04298  1.0000
  H   H13       1.0  0.22548  0.02619  0.97385  1.0000
  H   H14       1.0  0.25584  0.94968  0.94156  1.0000
  H   H15       1.0  0.20674  0.88224  0.96912  1.0000
