data_image0
_chemical_formula_structural       OCOC4NC4F3C2NC2H9
_chemical_formula_sum              "O2 C13 N2 F3 H9"
_cell_length_a       30
_cell_length_b       30
_cell_length_c       30
_cell_angle_alpha    90
_cell_angle_beta     90
_cell_angle_gamma    90

_space_group_name_H-M_alt    "P 1"
_space_group_IT_number       1

loop_
  _space_group_symop_operation_xyz
  'x, y, z'

loop_
  _atom_site_type_symbol
  _atom_site_label
  _atom_site_symmetry_multiplicity
  _atom_site_fract_x
  _atom_site_fract_y
  _atom_site_fract_z
  _atom_site_occupancy
  O   O1        1.0  0.20272  0.96526  0.98172  1.0000
  C   C1        1.0  0.17622  0.99351  0.99383  1.0000
  O   O2        1.0  0.18999  0.03371  0.00808  1.0000
  C   C2        1.0  0.12707  0.98851  0.99481  1.0000
  C   C3        1.0  0.09892  0.02260  0.00943  1.0000
  C   C4        1.0  0.05267  0.01625  0.00979  1.0000
  C   C5        1.0  0.03355  0.97636  0.99489  1.0000
  N   N1        1.0  0.98730  0.96782  0.99672  1.0000
  C   C6        1.0  0.95147  0.99845  0.99598  1.0000
  C   C7        1.0  0.90906  0.98213  0.00581  1.0000
  C   C8        1.0  0.87231  0.01098  0.00607  1.0000
  C   C9        1.0  0.82637  0.99356  0.01594  1.0000
  F   F1        1.0  0.82632  0.96012  0.04662  1.0000
  F   F2        1.0  0.80618  0.97664  0.97901  1.0000
  F   F3        1.0  0.79829  0.02533  0.03211  1.0000
  C   C10       1.0  0.87931  0.05578  0.99590  1.0000
  C   C11       1.0  0.92228  0.06951  0.98674  1.0000
  N   N2        1.0  0.95788  0.04197  0.98679  1.0000
  C   C12       1.0  0.06236  0.94201  0.98143  1.0000
  C   C13       1.0  0.10862  0.94805  0.98096  1.0000
  H   H1        1.0  0.22252  0.03218  0.00557  1.0000
  H   H2        1.0  0.11239  0.05423  0.02088  1.0000
  H   H3        1.0  0.03176  0.04313  0.02216  1.0000
  H   H4        1.0  0.97899  0.94028  0.97898  1.0000
  H   H5        1.0  0.90462  0.94705  0.01377  1.0000
  H   H6        1.0  0.85203  0.07958  0.99528  1.0000
  H   H7        1.0  0.92964  0.10408  0.97883  1.0000
  H   H8        1.0  0.04906  0.90997  0.97095  1.0000
  H   H9        1.0  0.13009  0.92097  0.96994  1.0000
