data_image0
_chemical_formula_structural       OCNC5FC4NSO2C4FC4H18
_chemical_formula_sum              "O3 C18 N2 F2 S1 H18"
_cell_length_a       30
_cell_length_b       30
_cell_length_c       30
_cell_angle_alpha    90
_cell_angle_beta     90
_cell_angle_gamma    90

_space_group_name_H-M_alt    "P 1"
_space_group_IT_number       1

loop_
  _space_group_symop_operation_xyz
  'x, y, z'

loop_
  _atom_site_type_symbol
  _atom_site_label
  _atom_site_symmetry_multiplicity
  _atom_site_fract_x
  _atom_site_fract_y
  _atom_site_fract_z
  _atom_site_occupancy
  O   O1        1.0  0.89711  0.92141  0.97377  1.0000
  C   C1        1.0  0.93198  0.94274  0.97055  1.0000
  N   N1        1.0  0.93635  0.98805  0.97754  1.0000
  C   C2        1.0  0.90247  0.01807  0.99095  1.0000
  C   C3        1.0  0.85939  0.00514  0.00327  1.0000
  C   C4        1.0  0.82779  0.03683  0.01662  1.0000
  C   C5        1.0  0.83903  0.08180  0.01787  1.0000
  C   C6        1.0  0.88176  0.09465  0.00573  1.0000
  F   F1        1.0  0.89287  0.13789  0.00695  1.0000
  C   C7        1.0  0.91337  0.06340  0.99237  1.0000
  C   C8        1.0  0.97513  0.91743  0.96025  1.0000
  C   C9        1.0  0.00283  0.91046  0.00266  1.0000
  C   C10       1.0  0.03394  0.94921  0.01288  1.0000
  N   N2        1.0  0.06033  0.96371  0.97338  1.0000
  S   S1        1.0  0.06524  0.01989  0.96599  1.0000
  O   O2        1.0  0.02003  0.03698  0.96506  1.0000
  O   O3        1.0  0.09595  0.02823  0.92984  1.0000
  C   C11       1.0  0.09134  0.03750  0.01606  1.0000
  C   C12       1.0  0.13494  0.02336  0.02487  1.0000
  C   C13       1.0  0.15581  0.03694  0.06413  1.0000
  C   C14       1.0  0.13308  0.06442  0.09383  1.0000
  F   F2        1.0  0.15320  0.07735  0.13151  1.0000
  C   C15       1.0  0.08980  0.07874  0.08502  1.0000
  C   C16       1.0  0.06864  0.06534  0.04583  1.0000
  C   C17       1.0  0.05177  0.93808  0.93193  1.0000
  C   C18       1.0  0.00216  0.93667  0.92141  1.0000
  H   H1        1.0  0.96615  0.00273  0.97019  1.0000
  H   H2        1.0  0.84910  0.97045  0.00308  1.0000
  H   H3        1.0  0.79447  0.02612  0.02601  1.0000
  H   H4        1.0  0.81492  0.10673  0.02812  1.0000
  H   H5        1.0  0.94618  0.07535  0.98298  1.0000
  H   H6        1.0  0.96398  0.88413  0.94966  1.0000
  H   H7        1.0  0.98115  0.90439  0.03147  1.0000
  H   H8        1.0  0.02290  0.88011  0.99860  1.0000
  H   H9        1.0  0.01439  0.97680  0.02655  1.0000
  H   H10       1.0  0.05748  0.93922  0.03898  1.0000
  H   H11       1.0  0.15254  0.00206  0.00136  1.0000
  H   H12       1.0  0.18961  0.02646  0.07175  1.0000
  H   H13       1.0  0.07298  0.10034  0.10871  1.0000
  H   H14       1.0  0.03494  0.07675  0.03886  1.0000
  H   H15       1.0  0.07022  0.95221  0.90378  1.0000
  H   H16       1.0  0.06513  0.90430  0.93619  1.0000
  H   H17       1.0  0.99712  0.91565  0.89189  1.0000
  H   H18       1.0  0.99045  0.96980  0.91154  1.0000
