data_image0
_chemical_formula_structural       OC5OC3SC2NC8H25
_chemical_formula_sum              "O2 C18 S1 N1 H25"
_cell_length_a       30
_cell_length_b       30
_cell_length_c       30
_cell_angle_alpha    90
_cell_angle_beta     90
_cell_angle_gamma    90

_space_group_name_H-M_alt    "P 1"
_space_group_IT_number       1

loop_
  _space_group_symop_operation_xyz
  'x, y, z'

loop_
  _atom_site_type_symbol
  _atom_site_label
  _atom_site_symmetry_multiplicity
  _atom_site_fract_x
  _atom_site_fract_y
  _atom_site_fract_z
  _atom_site_occupancy
  O   O1        1.0  0.01612  0.98804  0.95897  1.0000
  C   C1        1.0  0.01606  0.99942  0.99817  1.0000
  C   C2        1.0  0.97394  0.00769  0.02509  1.0000
  C   C3        1.0  0.93089  0.00367  0.99765  1.0000
  C   C4        1.0  0.92644  0.04147  0.96318  1.0000
  C   C5        1.0  0.87818  0.05581  0.95605  1.0000
  O   O2        1.0  0.84946  0.01818  0.95786  1.0000
  C   C6        1.0  0.84639  0.99775  0.00118  1.0000
  C   C7        1.0  0.83567  0.94827  0.99338  1.0000
  C   C8        1.0  0.78846  0.94597  0.97502  1.0000
  S   S1        1.0  0.75730  0.98577  0.00801  1.0000
  C   C9        1.0  0.80617  0.01642  0.02702  1.0000
  C   C10       1.0  0.88987  0.00347  0.02818  1.0000
  N   N1        1.0  0.05438  0.00542  0.02297  1.0000
  C   C11       1.0  0.09800  0.00320  0.00199  1.0000
  C   C12       1.0  0.13474  0.99405  0.03607  1.0000
  C   C13       1.0  0.18029  0.99312  0.01489  1.0000
  C   C14       1.0  0.20683  0.03154  0.01394  1.0000
  C   C15       1.0  0.24875  0.03072  0.99376  1.0000
  C   C16       1.0  0.26443  0.99159  0.97425  1.0000
  C   C17       1.0  0.23821  0.95325  0.97485  1.0000
  C   C18       1.0  0.19630  0.95399  0.99501  1.0000
  H   H1        1.0  0.97354  0.98297  0.05205  1.0000
  H   H2        1.0  0.97609  0.04081  0.04043  1.0000
  H   H3        1.0  0.93164  0.97183  0.97960  1.0000
  H   H4        1.0  0.94625  0.07078  0.97234  1.0000
  H   H5        1.0  0.94000  0.02948  0.93139  1.0000
  H   H6        1.0  0.86782  0.08051  0.98090  1.0000
  H   H7        1.0  0.87458  0.07143  0.92326  1.0000
  H   H8        1.0  0.83784  0.92927  0.02458  1.0000
  H   H9        1.0  0.85875  0.93303  0.96952  1.0000
  H   H10       1.0  0.77434  0.91253  0.97821  1.0000
  H   H11       1.0  0.78721  0.95584  0.93992  1.0000
  H   H12       1.0  0.80937  0.01065  0.06291  1.0000
  H   H13       1.0  0.80111  0.05201  0.02102  1.0000
  H   H14       1.0  0.88892  0.03524  0.04639  1.0000
  H   H15       1.0  0.89266  0.97740  0.05367  1.0000
  H   H16       1.0  0.05169  0.02264  0.05184  1.0000
  H   H17       1.0  0.09757  0.97733  0.97618  1.0000
  H   H18       1.0  0.10347  0.03521  0.98521  1.0000
  H   H19       1.0  0.13398  0.01939  0.06245  1.0000
  H   H20       1.0  0.12850  0.96221  0.05300  1.0000
  H   H21       1.0  0.19507  0.06240  0.02889  1.0000
  H   H22       1.0  0.26916  0.06064  0.99320  1.0000
  H   H23       1.0  0.29705  0.99099  0.95850  1.0000
  H   H24       1.0  0.25037  0.92276  0.95952  1.0000
  H   H25       1.0  0.17617  0.92382  0.99504  1.0000
