data_image0
_chemical_formula_structural       OCNC5F3C2NC2OC3H15
_chemical_formula_sum              "O2 C13 N2 F3 H15"
_cell_length_a       30
_cell_length_b       30
_cell_length_c       30
_cell_angle_alpha    90
_cell_angle_beta     90
_cell_angle_gamma    90

_space_group_name_H-M_alt    "P 1"
_space_group_IT_number       1

loop_
  _space_group_symop_operation_xyz
  'x, y, z'

loop_
  _atom_site_type_symbol
  _atom_site_label
  _atom_site_symmetry_multiplicity
  _atom_site_fract_x
  _atom_site_fract_y
  _atom_site_fract_z
  _atom_site_occupancy
  O   O1        1.0  0.97770  0.94077  0.97918  1.0000
  C   C1        1.0  0.97164  0.97958  0.99082  1.0000
  N   N1        1.0  0.00483  0.01091  0.99626  1.0000
  C   C2        1.0  0.05116  0.00541  0.99081  1.0000
  C   C3        1.0  0.07170  0.96494  0.98067  1.0000
  C   C4        1.0  0.11808  0.96236  0.97595  1.0000
  C   C5        1.0  0.14480  0.00032  0.98112  1.0000
  C   C6        1.0  0.19482  0.99734  0.97675  1.0000
  F   F1        1.0  0.20846  0.96438  0.94866  1.0000
  F   F2        1.0  0.21354  0.03559  0.96093  1.0000
  F   F3        1.0  0.21513  0.98909  0.01649  1.0000
  C   C7        1.0  0.12417  0.04085  0.99167  1.0000
  C   C8        1.0  0.07784  0.04332  0.99637  1.0000
  N   N2        1.0  0.92852  0.99548  0.00041  1.0000
  C   C9        1.0  0.89267  0.96232  0.00027  1.0000
  C   C10       1.0  0.89169  0.93410  0.04275  1.0000
  O   O2        1.0  0.85734  0.90139  0.04027  1.0000
  C   C11       1.0  0.91904  0.03785  0.02130  1.0000
  C   C12       1.0  0.92351  0.08111  0.99595  1.0000
  C   C13       1.0  0.87835  0.06503  0.00957  1.0000
  H   H1        1.0  0.99447  0.04203  0.00323  1.0000
  H   H2        1.0  0.05264  0.93449  0.97629  1.0000
  H   H3        1.0  0.13316  0.93027  0.96810  1.0000
  H   H4        1.0  0.14413  0.07084  0.99625  1.0000
  H   H5        1.0  0.06299  0.07538  0.00446  1.0000
  H   H6        1.0  0.86040  0.97870  0.99553  1.0000
  H   H7        1.0  0.89672  0.94045  0.97124  1.0000
  H   H8        1.0  0.92344  0.91707  0.04857  1.0000
  H   H9        1.0  0.88503  0.95515  0.07181  1.0000
  H   H10       1.0  0.86691  0.87936  0.01841  1.0000
  H   H11       1.0  0.92871  0.03823  0.05629  1.0000
  H   H12       1.0  0.93161  0.07984  0.96074  1.0000
  H   H13       1.0  0.93703  0.10976  0.01331  1.0000
  H   H14       1.0  0.86144  0.08241  0.03637  1.0000
  H   H15       1.0  0.85631  0.05386  0.98322  1.0000
