data_image0
_chemical_formula_structural       OCNC5NCNC3NC2N2C6H20
_chemical_formula_sum              "O1 C18 N6 H20"
_cell_length_a       30
_cell_length_b       30
_cell_length_c       30
_cell_angle_alpha    90
_cell_angle_beta     90
_cell_angle_gamma    90

_space_group_name_H-M_alt    "P 1"
_space_group_IT_number       1

loop_
  _space_group_symop_operation_xyz
  'x, y, z'

loop_
  _atom_site_type_symbol
  _atom_site_label
  _atom_site_symmetry_multiplicity
  _atom_site_fract_x
  _atom_site_fract_y
  _atom_site_fract_z
  _atom_site_occupancy
  O   O1        1.0  0.08693  0.04249  0.03493  1.0000
  C   C1        1.0  0.07206  0.02361  0.00180  1.0000
  N   N1        1.0  0.02944  0.03023  0.98598  1.0000
  C   C2        1.0  0.99719  0.05883  0.00753  1.0000
  C   C3        1.0  0.97429  0.03620  0.04750  1.0000
  C   C4        1.0  0.94932  0.07019  0.07651  1.0000
  C   C5        1.0  0.90777  0.08799  0.05325  1.0000
  C   C6        1.0  0.87726  0.05016  0.03798  1.0000
  N   N2        1.0  0.90235  0.01783  0.01137  1.0000
  C   C7        1.0  0.87525  0.98563  0.99097  1.0000
  N   N3        1.0  0.89369  0.94705  0.97744  1.0000
  C   C8        1.0  0.86734  0.91702  0.95699  1.0000
  C   C9        1.0  0.82286  0.92363  0.94921  1.0000
  C   C10       1.0  0.80662  0.96367  0.96389  1.0000
  N   N4        1.0  0.83178  0.99461  0.98449  1.0000
  C   C11       1.0  0.94235  0.99905  0.03239  1.0000
  C   C12       1.0  0.09771  0.99130  0.97523  1.0000
  N   N5        1.0  0.07960  0.97064  0.93949  1.0000
  N   N6        1.0  0.11258  0.94432  0.92447  1.0000
  C   C13       1.0  0.15116  0.94667  0.94861  1.0000
  C   C14       1.0  0.19207  0.92486  0.94373  1.0000
  C   C15       1.0  0.22538  0.93500  0.97474  1.0000
  C   C16       1.0  0.21786  0.96556  0.00896  1.0000
  C   C17       1.0  0.17661  0.98699  0.01319  1.0000
  C   C18       1.0  0.14260  0.97728  0.98232  1.0000
  H   H1        1.0  0.02052  0.01125  0.95931  1.0000
  H   H2        1.0  0.01483  0.08882  0.01871  1.0000
  H   H3        1.0  0.97318  0.06896  0.98199  1.0000
  H   H4        1.0  0.00021  0.02088  0.06832  1.0000
  H   H5        1.0  0.93941  0.05411  0.10784  1.0000
  H   H6        1.0  0.97133  0.09793  0.08553  1.0000
  H   H7        1.0  0.91752  0.10827  0.02444  1.0000
  H   H8        1.0  0.88949  0.11006  0.07591  1.0000
  H   H9        1.0  0.85023  0.06545  0.01866  1.0000
  H   H10       1.0  0.86243  0.03377  0.06715  1.0000
  H   H11       1.0  0.88390  0.88652  0.94672  1.0000
  H   H12       1.0  0.80222  0.89920  0.93270  1.0000
  H   H13       1.0  0.77184  0.97261  0.95945  1.0000
  H   H14       1.0  0.96055  0.97690  0.00969  1.0000
  H   H15       1.0  0.93261  0.97907  0.06150  1.0000
  H   H16       1.0  0.10666  0.92524  0.89723  1.0000
  H   H17       1.0  0.19802  0.90108  0.91714  1.0000
  H   H18       1.0  0.25771  0.91877  0.97213  1.0000
  H   H19       1.0  0.24426  0.97292  0.03269  1.0000
  H   H20       1.0  0.17100  0.01079  0.03994  1.0000
