data_image0
_chemical_formula_structural       OCClCOC4ClC12H16
_chemical_formula_sum              "O2 C18 Cl2 H16"
_cell_length_a       30
_cell_length_b       30
_cell_length_c       30
_cell_angle_alpha    90
_cell_angle_beta     90
_cell_angle_gamma    90

_space_group_name_H-M_alt    "P 1"
_space_group_IT_number       1

loop_
  _space_group_symop_operation_xyz
  'x, y, z'

loop_
  _atom_site_type_symbol
  _atom_site_label
  _atom_site_symmetry_multiplicity
  _atom_site_fract_x
  _atom_site_fract_y
  _atom_site_fract_z
  _atom_site_occupancy
  O   O1        1.0  0.95303  0.03213  0.10304  1.0000
  C   C1        1.0  0.95714  0.05040  0.06657  1.0000
  Cl  Cl1       1.0  0.96512  0.10769  0.05899  1.0000
  C   C2        1.0  0.95474  0.02505  0.02180  1.0000
  O   O2        1.0  0.93604  0.98120  0.02661  1.0000
  C   C3        1.0  0.89085  0.98149  0.02083  1.0000
  C   C4        1.0  0.86326  0.98128  0.05819  1.0000
  C   C5        1.0  0.81708  0.98060  0.05259  1.0000
  C   C6        1.0  0.79904  0.97951  0.00973  1.0000
  Cl  Cl2       1.0  0.74212  0.97867  0.00283  1.0000
  C   C7        1.0  0.82679  0.97882  0.97240  1.0000
  C   C8        1.0  0.87298  0.97952  0.97797  1.0000
  C   C9        1.0  0.00109  0.01941  0.00193  1.0000
  C   C10       1.0  0.01302  0.04219  0.96282  1.0000
  C   C11       1.0  0.05562  0.03749  0.94470  1.0000
  C   C12       1.0  0.08703  0.01031  0.96567  1.0000
  C   C13       1.0  0.13290  0.00318  0.94662  1.0000
  C   C14       1.0  0.16835  0.00391  0.98326  1.0000
  C   C15       1.0  0.15578  0.97855  0.02594  1.0000
  C   C16       1.0  0.10969  0.95674  0.02520  1.0000
  C   C17       1.0  0.07552  0.98728  0.00474  1.0000
  C   C18       1.0  0.03269  0.99167  0.02255  1.0000
  H   H1        1.0  0.93433  0.04498  0.99878  1.0000
  H   H2        1.0  0.87751  0.98145  0.09152  1.0000
  H   H3        1.0  0.79546  0.98063  0.08166  1.0000
  H   H4        1.0  0.81268  0.97738  0.93907  1.0000
  H   H5        1.0  0.89477  0.97816  0.94907  1.0000
  H   H6        1.0  0.98923  0.06375  0.94594  1.0000
  H   H7        1.0  0.06410  0.05512  0.91418  1.0000
  H   H8        1.0  0.13339  0.97095  0.92934  1.0000
  H   H9        1.0  0.14081  0.02881  0.92181  1.0000
  H   H10       1.0  0.19983  0.99096  0.96994  1.0000
  H   H11       1.0  0.17504  0.03874  0.99239  1.0000
  H   H12       1.0  0.18107  0.95317  0.03319  1.0000
  H   H13       1.0  0.15713  0.00215  0.05390  1.0000
  H   H14       1.0  0.11077  0.92584  0.00567  1.0000
  H   H15       1.0  0.10024  0.94760  0.05929  1.0000
  H   H16       1.0  0.02376  0.97322  0.05254  1.0000
