data_image0
_chemical_formula_structural       OCOC2NCOC4NSO2C4ClSC3H19
_chemical_formula_sum              "O5 C15 N2 S2 Cl1 H19"
_cell_length_a       30
_cell_length_b       30
_cell_length_c       30
_cell_angle_alpha    90
_cell_angle_beta     90
_cell_angle_gamma    90

_space_group_name_H-M_alt    "P 1"
_space_group_IT_number       1

loop_
  _space_group_symop_operation_xyz
  'x, y, z'

loop_
  _atom_site_type_symbol
  _atom_site_label
  _atom_site_symmetry_multiplicity
  _atom_site_fract_x
  _atom_site_fract_y
  _atom_site_fract_z
  _atom_site_occupancy
  O   O1        1.0  0.80110  0.00787  0.98311  1.0000
  C   C1        1.0  0.83725  0.99288  0.97180  1.0000
  O   O2        1.0  0.84245  0.97524  0.93096  1.0000
  C   C2        1.0  0.87771  0.98971  0.00109  1.0000
  C   C3        1.0  0.92096  0.00199  0.97698  1.0000
  N   N1        1.0  0.96005  0.99003  0.00368  1.0000
  C   C4        1.0  0.97334  0.94618  0.00823  1.0000
  O   O3        1.0  0.95067  0.91475  0.99487  1.0000
  C   C5        1.0  0.01600  0.93846  0.03492  1.0000
  C   C6        1.0  0.00628  0.94642  0.08466  1.0000
  C   C7        1.0  0.04935  0.96528  0.10320  1.0000
  C   C8        1.0  0.06651  0.99356  0.06491  1.0000
  N   N2        1.0  0.05636  0.96613  0.02550  1.0000
  S   S1        1.0  0.06327  0.98776  0.97442  1.0000
  O   O4        1.0  0.03965  0.02982  0.97339  1.0000
  O   O5        1.0  0.05422  0.95298  0.94233  1.0000
  C   C9        1.0  0.12088  0.99973  0.96713  1.0000
  C   C10       1.0  0.15528  0.97455  0.94939  1.0000
  C   C11       1.0  0.19689  0.99752  0.95023  1.0000
  C   C12       1.0  0.19219  0.03904  0.96869  1.0000
  Cl  Cl1       1.0  0.23353  0.07784  0.97643  1.0000
  S   S2        1.0  0.13947  0.05080  0.98478  1.0000
  C   C13       1.0  0.92582  0.05077  0.96471  1.0000
  C   C14       1.0  0.89076  0.08652  0.97109  1.0000
  C   C15       1.0  0.93134  0.08612  0.00031  1.0000
  H   H1        1.0  0.81303  0.97812  0.91706  1.0000
  H   H2        1.0  0.87268  0.01135  0.03011  1.0000
  H   H3        1.0  0.87863  0.95548  0.01377  1.0000
  H   H4        1.0  0.92345  0.98271  0.94599  1.0000
  H   H5        1.0  0.98433  0.01362  0.00547  1.0000
  H   H6        1.0  0.02605  0.90365  0.02983  1.0000
  H   H7        1.0  0.99654  0.91558  0.10157  1.0000
  H   H8        1.0  0.97915  0.97041  0.08962  1.0000
  H   H9        1.0  0.04435  0.98451  0.13375  1.0000
  H   H10       1.0  0.07275  0.93813  0.11043  1.0000
  H   H11       1.0  0.10229  0.99936  0.06840  1.0000
  H   H12       1.0  0.04878  0.02543  0.06350  1.0000
  H   H13       1.0  0.15033  0.94121  0.93630  1.0000
  H   H14       1.0  0.22813  0.98422  0.93796  1.0000
  H   H15       1.0  0.94722  0.05407  0.93559  1.0000
  H   H16       1.0  0.85913  0.07942  0.98694  1.0000
  H   H17       1.0  0.88845  0.11230  0.94581  1.0000
  H   H18       1.0  0.92692  0.07697  0.03499  1.0000
  H   H19       1.0  0.95649  0.11150  0.99488  1.0000
