data_image0
_chemical_formula_structural       OC5NCOC8NC7H30
_chemical_formula_sum              "O2 C21 N2 H30"
_cell_length_a       30
_cell_length_b       30
_cell_length_c       30
_cell_angle_alpha    90
_cell_angle_beta     90
_cell_angle_gamma    90

_space_group_name_H-M_alt    "P 1"
_space_group_IT_number       1

loop_
  _space_group_symop_operation_xyz
  'x, y, z'

loop_
  _atom_site_type_symbol
  _atom_site_label
  _atom_site_symmetry_multiplicity
  _atom_site_fract_x
  _atom_site_fract_y
  _atom_site_fract_z
  _atom_site_occupancy
  O   O1        1.0  0.96983  0.00978  0.93852  1.0000
  C   C1        1.0  0.95495  0.00389  0.97656  1.0000
  C   C2        1.0  0.97352  0.96547  0.00566  1.0000
  C   C3        1.0  0.95839  0.92077  0.98560  1.0000
  C   C4        1.0  0.00044  0.89222  0.98443  1.0000
  C   C5        1.0  0.03754  0.92595  0.97769  1.0000
  N   N1        1.0  0.02222  0.96432  0.00272  1.0000
  C   C6        1.0  0.04759  0.99693  0.02265  1.0000
  O   O2        1.0  0.03051  0.02624  0.04573  1.0000
  C   C7        1.0  0.09747  0.99417  0.01497  1.0000
  C   C8        1.0  0.12158  0.03507  0.03332  1.0000
  C   C9        1.0  0.17114  0.03232  0.02514  1.0000
  C   C10       1.0  0.18942  0.04816  0.98518  1.0000
  C   C11       1.0  0.23516  0.04496  0.97730  1.0000
  C   C12       1.0  0.26298  0.02580  0.00919  1.0000
  C   C13       1.0  0.24510  0.00980  0.04897  1.0000
  C   C14       1.0  0.19937  0.01296  0.05691  1.0000
  N   N2        1.0  0.91977  0.02959  0.99286  1.0000
  C   C15       1.0  0.90415  0.02904  0.03890  1.0000
  C   C16       1.0  0.87012  0.99254  0.04846  1.0000
  C   C17       1.0  0.82436  0.00036  0.02746  1.0000
  C   C18       1.0  0.82161  0.99006  0.97753  1.0000
  C   C19       1.0  0.82269  0.03110  0.94725  1.0000
  C   C20       1.0  0.86860  0.04339  0.92892  1.0000
  C   C21       1.0  0.90056  0.06308  0.96324  1.0000
  H   H1        1.0  0.96457  0.96783  0.04079  1.0000
  H   H2        1.0  0.93212  0.90513  0.00552  1.0000
  H   H3        1.0  0.94523  0.92475  0.95172  1.0000
  H   H4        1.0  0.00459  0.87540  0.01664  1.0000
  H   H5        1.0  0.99959  0.86677  0.95836  1.0000
  H   H6        1.0  0.06975  0.91373  0.98949  1.0000
  H   H7        1.0  0.04046  0.93582  0.94267  1.0000
  H   H8        1.0  0.10997  0.96403  0.03143  1.0000
  H   H9        1.0  0.10366  0.99114  0.97908  1.0000
  H   H10       1.0  0.11535  0.03857  0.06920  1.0000
  H   H11       1.0  0.10840  0.06558  0.01801  1.0000
  H   H12       1.0  0.16809  0.06316  0.95998  1.0000
  H   H13       1.0  0.24907  0.05745  0.94627  1.0000
  H   H14       1.0  0.29860  0.02337  0.00305  1.0000
  H   H15       1.0  0.26678  0.99486  0.07385  1.0000
  H   H16       1.0  0.18587  0.00031  0.08809  1.0000
  H   H17       1.0  0.93299  0.02480  0.06084  1.0000
  H   H18       1.0  0.89031  0.06174  0.04753  1.0000
  H   H19       1.0  0.88277  0.95978  0.03861  1.0000
  H   H20       1.0  0.86547  0.99124  0.08473  1.0000
  H   H21       1.0  0.80120  0.97761  0.04440  1.0000
  H   H22       1.0  0.81241  0.03407  0.03488  1.0000
  H   H23       1.0  0.78911  0.97411  0.97204  1.0000
  H   H24       1.0  0.84657  0.96538  0.96741  1.0000
  H   H25       1.0  0.80739  0.05996  0.96363  1.0000
  H   H26       1.0  0.80157  0.02374  0.91827  1.0000
  H   H27       1.0  0.86348  0.06863  0.90292  1.0000
  H   H28       1.0  0.88341  0.01441  0.91230  1.0000
  H   H29       1.0  0.92806  0.07941  0.94549  1.0000
  H   H30       1.0  0.88406  0.08925  0.98265  1.0000
