data_image0
_chemical_formula_structural       OCNC4ClC2OC2F2C3ONC12H21
_chemical_formula_sum              "O3 C24 N2 Cl1 F2 H21"
_cell_length_a       30
_cell_length_b       30
_cell_length_c       30
_cell_angle_alpha    90
_cell_angle_beta     90
_cell_angle_gamma    90

_space_group_name_H-M_alt    "P 1"
_space_group_IT_number       1

loop_
  _space_group_symop_operation_xyz
  'x, y, z'

loop_
  _atom_site_type_symbol
  _atom_site_label
  _atom_site_symmetry_multiplicity
  _atom_site_fract_x
  _atom_site_fract_y
  _atom_site_fract_z
  _atom_site_occupancy
  O   O1        1.0  0.94839  0.89019  0.94302  1.0000
  C   C1        1.0  0.95903  0.91402  0.97456  1.0000
  N   N1        1.0  0.93850  0.95334  0.98656  1.0000
  C   C2        1.0  0.90304  0.97586  0.96544  1.0000
  C   C3        1.0  0.88356  0.96202  0.92557  1.0000
  C   C4        1.0  0.84936  0.98720  0.90645  1.0000
  C   C5        1.0  0.83474  0.02606  0.92723  1.0000
  Cl  Cl1       1.0  0.79312  0.05725  0.90301  1.0000
  C   C6        1.0  0.85368  0.04022  0.96724  1.0000
  C   C7        1.0  0.88771  0.01507  0.98664  1.0000
  O   O2        1.0  0.90925  0.02575  0.02584  1.0000
  C   C8        1.0  0.88930  0.05945  0.05316  1.0000
  C   C9        1.0  0.91328  0.06141  0.09784  1.0000
  F   F1        1.0  0.89354  0.03308  0.12713  1.0000
  F   F2        1.0  0.90889  0.10290  0.11533  1.0000
  C   C10       1.0  0.99913  0.90140  0.00334  1.0000
  C   C11       1.0  0.98887  0.90042  0.05322  1.0000
  C   C12       1.0  0.00494  0.94523  0.06934  1.0000
  O   O3        1.0  0.99391  0.96307  0.10414  1.0000
  N   N2        1.0  0.03292  0.96297  0.03735  1.0000
  C   C13       1.0  0.05275  0.00712  0.04116  1.0000
  C   C14       1.0  0.09671  0.01198  0.01699  1.0000
  C   C15       1.0  0.13487  0.99507  0.03845  1.0000
  C   C16       1.0  0.17656  0.99751  0.01844  1.0000
  C   C17       1.0  0.18074  0.01663  0.97644  1.0000
  C   C18       1.0  0.14345  0.03360  0.95387  1.0000
  C   C19       1.0  0.14872  0.05261  0.91140  1.0000
  C   C20       1.0  0.11237  0.06971  0.88808  1.0000
  C   C21       1.0  0.07019  0.06782  0.90691  1.0000
  C   C22       1.0  0.06441  0.04909  0.94916  1.0000
  C   C23       1.0  0.10062  0.03153  0.97386  1.0000
  C   C24       1.0  0.03648  0.93518  0.99811  1.0000
  H   H1        1.0  0.94916  0.96937  0.01441  1.0000
  H   H2        1.0  0.89446  0.93208  0.90837  1.0000
  H   H3        1.0  0.83454  0.97640  0.87520  1.0000
  H   H4        1.0  0.84163  0.07083  0.98218  1.0000
  H   H5        1.0  0.89271  0.09174  0.03645  1.0000
  H   H6        1.0  0.85398  0.05200  0.05889  1.0000
  H   H7        1.0  0.94873  0.05317  0.09545  1.0000
  H   H8        1.0  0.00992  0.86834  0.99200  1.0000
  H   H9        1.0  0.95342  0.89628  0.06039  1.0000
  H   H10       1.0  0.00814  0.87459  0.07027  1.0000
  H   H11       1.0  0.02790  0.03125  0.02980  1.0000
  H   H12       1.0  0.05745  0.01479  0.07663  1.0000
  H   H13       1.0  0.13203  0.97975  0.07124  1.0000
  H   H14       1.0  0.20579  0.98437  0.03546  1.0000
  H   H15       1.0  0.21367  0.01821  0.96129  1.0000
  H   H16       1.0  0.18154  0.05428  0.89605  1.0000
  H   H17       1.0  0.11708  0.08431  0.85525  1.0000
  H   H18       1.0  0.04164  0.08102  0.88884  1.0000
  H   H19       1.0  0.03063  0.04833  0.96219  1.0000
  H   H20       1.0  0.03338  0.95521  0.96784  1.0000
  H   H21       1.0  0.06917  0.91893  0.99885  1.0000
