data_image0
_chemical_formula_structural       OCNC8NC5FCH11
_chemical_formula_sum              "O1 C15 N2 F1 H11"
_cell_length_a       30
_cell_length_b       30
_cell_length_c       30
_cell_angle_alpha    90
_cell_angle_beta     90
_cell_angle_gamma    90

_space_group_name_H-M_alt    "P 1"
_space_group_IT_number       1

loop_
  _space_group_symop_operation_xyz
  'x, y, z'

loop_
  _atom_site_type_symbol
  _atom_site_label
  _atom_site_symmetry_multiplicity
  _atom_site_fract_x
  _atom_site_fract_y
  _atom_site_fract_z
  _atom_site_occupancy
  O   O1        1.0  0.03090  0.02295  0.07908  1.0000
  C   C1        1.0  0.01165  0.01230  0.04457  1.0000
  N   N1        1.0  0.03243  0.00420  0.00438  1.0000
  C   C2        1.0  0.07835  0.00626  0.99446  1.0000
  C   C3        1.0  0.11141  0.01734  0.02526  1.0000
  C   C4        1.0  0.15624  0.01855  0.01242  1.0000
  C   C5        1.0  0.16838  0.00871  0.96871  1.0000
  C   C6        1.0  0.13570  0.99761  0.93772  1.0000
  C   C7        1.0  0.09094  0.99641  0.95055  1.0000
  C   C8        1.0  0.96273  0.00740  0.04444  1.0000
  C   C9        1.0  0.93768  0.01459  0.08271  1.0000
  N   N2        1.0  0.89371  0.00789  0.07349  1.0000
  C   C10       1.0  0.88855  0.99625  0.02954  1.0000
  C   C11       1.0  0.84946  0.98637  0.00584  1.0000
  C   C12       1.0  0.85330  0.97535  0.96077  1.0000
  C   C13       1.0  0.89478  0.97428  0.94021  1.0000
  C   C14       1.0  0.93320  0.98425  0.96452  1.0000
  F   F1        1.0  0.97249  0.98277  0.94324  1.0000
  C   C15       1.0  0.93106  0.99559  0.01018  1.0000
  H   H1        1.0  0.01258  0.99569  0.97854  1.0000
  H   H2        1.0  0.10357  0.02527  0.05967  1.0000
  H   H3        1.0  0.18161  0.02724  0.03679  1.0000
  H   H4        1.0  0.20324  0.00969  0.95889  1.0000
  H   H5        1.0  0.14496  0.98989  0.90356  1.0000
  H   H6        1.0  0.06605  0.98765  0.92570  1.0000
  H   H7        1.0  0.94831  0.02405  0.11591  1.0000
  H   H8        1.0  0.86851  0.01099  0.09567  1.0000
  H   H9        1.0  0.81701  0.98720  0.02188  1.0000
  H   H10       1.0  0.82351  0.96755  0.94163  1.0000
  H   H11       1.0  0.89770  0.96570  0.90517  1.0000
