data_image0
_chemical_formula_structural       OCNC3OC8F3NC6SCH21
_chemical_formula_sum              "O2 C19 N2 F3 S1 H21"
_cell_length_a       30
_cell_length_b       30
_cell_length_c       30
_cell_angle_alpha    90
_cell_angle_beta     90
_cell_angle_gamma    90

_space_group_name_H-M_alt    "P 1"
_space_group_IT_number       1

loop_
  _space_group_symop_operation_xyz
  'x, y, z'

loop_
  _atom_site_type_symbol
  _atom_site_label
  _atom_site_symmetry_multiplicity
  _atom_site_fract_x
  _atom_site_fract_y
  _atom_site_fract_z
  _atom_site_occupancy
  O   O1        1.0  0.03060  0.99196  0.01941  1.0000
  C   C1        1.0  0.06046  0.01616  0.00519  1.0000
  N   N1        1.0  0.05118  0.05433  0.98181  1.0000
  C   C2        1.0  0.00539  0.06726  0.97315  1.0000
  C   C3        1.0  0.98571  0.04240  0.93324  1.0000
  C   C4        1.0  0.93604  0.05217  0.92754  1.0000
  O   O2        1.0  0.90844  0.01619  0.94192  1.0000
  C   C5        1.0  0.90828  0.00948  0.98888  1.0000
  C   C6        1.0  0.86902  0.98015  0.00052  1.0000
  C   C7        1.0  0.87701  0.93973  0.02291  1.0000
  C   C8        1.0  0.84196  0.91145  0.03445  1.0000
  C   C9        1.0  0.79839  0.92301  0.02374  1.0000
  C   C10       1.0  0.78982  0.96300  0.00161  1.0000
  C   C11       1.0  0.82469  0.99224  0.98996  1.0000
  C   C12       1.0  0.81336  0.03504  0.96567  1.0000
  F   F1        1.0  0.83815  0.07085  0.97878  1.0000
  F   F2        1.0  0.81788  0.03208  0.92061  1.0000
  F   F3        1.0  0.77012  0.04793  0.97244  1.0000
  N   N2        1.0  0.10520  0.00710  0.01203  1.0000
  C   C13       1.0  0.14268  0.03394  0.99481  1.0000
  C   C14       1.0  0.18165  0.03745  0.02783  1.0000
  C   C15       1.0  0.19206  0.99223  0.04533  1.0000
  C   C16       1.0  0.16167  0.95775  0.04609  1.0000
  C   C17       1.0  0.18110  0.91857  0.06515  1.0000
  C   C18       1.0  0.22480  0.92517  0.07782  1.0000
  S   S1        1.0  0.24247  0.97832  0.06689  1.0000
  C   C19       1.0  0.11502  0.96200  0.02869  1.0000
  H   H1        1.0  0.07348  0.06330  0.95840  1.0000
  H   H2        1.0  0.00559  0.10320  0.96666  1.0000
  H   H3        1.0  0.98580  0.06153  0.00339  1.0000
  H   H4        1.0  0.99150  0.00644  0.93605  1.0000
  H   H5        1.0  0.00357  0.05362  0.90335  1.0000
  H   H6        1.0  0.92571  0.08325  0.94375  1.0000
  H   H7        1.0  0.92913  0.05613  0.89190  1.0000
  H   H8        1.0  0.93957  0.99342  0.99864  1.0000
  H   H9        1.0  0.90550  0.04110  0.00700  1.0000
  H   H10       1.0  0.91093  0.92990  0.03133  1.0000
  H   H11       1.0  0.84878  0.88028  0.05163  1.0000
  H   H12       1.0  0.77105  0.90091  0.03254  1.0000
  H   H13       1.0  0.75546  0.97144  0.99338  1.0000
  H   H14       1.0  0.15353  0.01802  0.96371  1.0000
  H   H15       1.0  0.13205  0.06781  0.98662  1.0000
  H   H16       1.0  0.17211  0.05905  0.05575  1.0000
  H   H17       1.0  0.21047  0.05256  0.01124  1.0000
  H   H18       1.0  0.16390  0.88710  0.06938  1.0000
  H   H19       1.0  0.24727  0.90139  0.09297  1.0000
  H   H20       1.0  0.09129  0.95316  0.05502  1.0000
  H   H21       1.0  0.11018  0.93887  0.00081  1.0000
