data_image0
_chemical_formula_structural       OCNC3NC6N3C4SCONC5H20
_chemical_formula_sum              "O2 C20 N6 S1 H20"
_cell_length_a       30
_cell_length_b       30
_cell_length_c       30
_cell_angle_alpha    90
_cell_angle_beta     90
_cell_angle_gamma    90

_space_group_name_H-M_alt    "P 1"
_space_group_IT_number       1

loop_
  _space_group_symop_operation_xyz
  'x, y, z'

loop_
  _atom_site_type_symbol
  _atom_site_label
  _atom_site_symmetry_multiplicity
  _atom_site_fract_x
  _atom_site_fract_y
  _atom_site_fract_z
  _atom_site_occupancy
  O   O1        1.0  0.95109  0.08016  0.93247  1.0000
  C   C1        1.0  0.94899  0.03948  0.93104  1.0000
  N   N1        1.0  0.90967  0.01625  0.93658  1.0000
  C   C2        1.0  0.86890  0.03935  0.94847  1.0000
  C   C3        1.0  0.85430  0.02440  0.99337  1.0000
  C   C4        1.0  0.82871  0.98814  0.00542  1.0000
  N   N2        1.0  0.82556  0.99046  0.05117  1.0000
  C   C5        1.0  0.80283  0.96156  0.08092  1.0000
  C   C6        1.0  0.80368  0.97049  0.12684  1.0000
  C   C7        1.0  0.78142  0.94245  0.15658  1.0000
  C   C8        1.0  0.75827  0.90543  0.14076  1.0000
  C   C9        1.0  0.75733  0.89631  0.09520  1.0000
  C   C10       1.0  0.77950  0.92423  0.06520  1.0000
  N   N3        1.0  0.84859  0.02647  0.06579  1.0000
  N   N4        1.0  0.86615  0.04720  0.03095  1.0000
  N   N5        1.0  0.98371  0.01056  0.92271  1.0000
  C   C11       1.0  0.02937  0.02100  0.91946  1.0000
  C   C12       1.0  0.04736  0.06230  0.93111  1.0000
  C   C13       1.0  0.09334  0.06985  0.92797  1.0000
  C   C14       1.0  0.12200  0.03611  0.91338  1.0000
  S   S1        1.0  0.18014  0.04725  0.90896  1.0000
  C   C15       1.0  0.20316  0.00916  0.94683  1.0000
  O   O2        1.0  0.18620  0.97342  0.95672  1.0000
  N   N6        1.0  0.24316  0.02511  0.96218  1.0000
  C   C16       1.0  0.27075  0.00120  0.99254  1.0000
  C   C17       1.0  0.31370  0.02112  0.00920  1.0000
  C   C18       1.0  0.27477  0.01609  0.04025  1.0000
  C   C19       1.0  0.10394  0.99496  0.90118  1.0000
  C   C20       1.0  0.05804  0.98733  0.90455  1.0000
  H   H1        1.0  0.91286  0.98484  0.94799  1.0000
  H   H2        1.0  0.84388  0.03017  0.92354  1.0000
  H   H3        1.0  0.87306  0.07556  0.94756  1.0000
  H   H4        1.0  0.81310  0.96234  0.98589  1.0000
  H   H5        1.0  0.82145  0.99921  0.14011  1.0000
  H   H6        1.0  0.78214  0.94960  0.19212  1.0000
  H   H7        1.0  0.74094  0.88366  0.16397  1.0000
  H   H8        1.0  0.73919  0.86737  0.08298  1.0000
  H   H9        1.0  0.77784  0.91585  0.03004  1.0000
  H   H10       1.0  0.97480  0.97943  0.91362  1.0000
  H   H11       1.0  0.02651  0.08935  0.94322  1.0000
  H   H12       1.0  0.10628  0.10245  0.93727  1.0000
  H   H13       1.0  0.25370  0.05432  0.94916  1.0000
  H   H14       1.0  0.27094  0.96536  0.98657  1.0000
  H   H15       1.0  0.32277  0.05454  0.99894  1.0000
  H   H16       1.0  0.34191  0.99885  0.01351  1.0000
  H   H17       1.0  0.25690  0.04589  0.05053  1.0000
  H   H18       1.0  0.27641  0.99046  0.06571  1.0000
  H   H19       1.0  0.12542  0.96817  0.88948  1.0000
  H   H20       1.0  0.04528  0.95469  0.89530  1.0000
