data_image0
_chemical_formula_structural       OC7ONC3OCNC6SC2H18
_chemical_formula_sum              "O3 C19 N2 S1 H18"
_cell_length_a       30
_cell_length_b       30
_cell_length_c       30
_cell_angle_alpha    90
_cell_angle_beta     90
_cell_angle_gamma    90

_space_group_name_H-M_alt    "P 1"
_space_group_IT_number       1

loop_
  _space_group_symop_operation_xyz
  'x, y, z'

loop_
  _atom_site_type_symbol
  _atom_site_label
  _atom_site_symmetry_multiplicity
  _atom_site_fract_x
  _atom_site_fract_y
  _atom_site_fract_z
  _atom_site_occupancy
  O   O1        1.0  0.87739  0.09699  0.00112  1.0000
  C   C1        1.0  0.89312  0.05917  0.00436  1.0000
  C   C2        1.0  0.86256  0.01945  0.00818  1.0000
  C   C3        1.0  0.82510  0.02149  0.98353  1.0000
  C   C4        1.0  0.79146  0.98752  0.97835  1.0000
  C   C5        1.0  0.78296  0.95401  0.00649  1.0000
  C   C6        1.0  0.80583  0.94508  0.04767  1.0000
  C   C7        1.0  0.84675  0.95883  0.05897  1.0000
  O   O2        1.0  0.87597  0.98530  0.03601  1.0000
  N   N1        1.0  0.93888  0.05171  0.00505  1.0000
  C   C8        1.0  0.96018  0.00826  0.99839  1.0000
  C   C9        1.0  0.00394  0.01250  0.97280  1.0000
  C   C10       1.0  0.03706  0.04398  0.99594  1.0000
  O   O3        1.0  0.06713  0.01934  0.02352  1.0000
  C   C11       1.0  0.10421  0.00188  0.00589  1.0000
  N   N2        1.0  0.13154  0.98063  0.03266  1.0000
  C   C12       1.0  0.16787  0.96457  0.00927  1.0000
  C   C13       1.0  0.20382  0.94032  0.02735  1.0000
  C   C14       1.0  0.23848  0.92606  0.99961  1.0000
  C   C15       1.0  0.23769  0.93568  0.95424  1.0000
  C   C16       1.0  0.20240  0.95968  0.93550  1.0000
  C   C17       1.0  0.16780  0.97381  0.96371  1.0000
  S   S1        1.0  0.12045  0.00346  0.95101  1.0000
  C   C18       1.0  0.01363  0.07770  0.02648  1.0000
  C   C19       1.0  0.96810  0.09047  0.00836  1.0000
  H   H1        1.0  0.81921  0.05104  0.96320  1.0000
  H   H2        1.0  0.77086  0.99070  0.94864  1.0000
  H   H3        1.0  0.75585  0.93123  0.99854  1.0000
  H   H4        1.0  0.78814  0.92345  0.07080  1.0000
  H   H5        1.0  0.86224  0.94854  0.08996  1.0000
  H   H6        1.0  0.93793  0.98611  0.97983  1.0000
  H   H7        1.0  0.96607  0.99367  0.03136  1.0000
  H   H8        1.0  0.01824  0.97925  0.96798  1.0000
  H   H9        1.0  0.99644  0.02597  0.93961  1.0000
  H   H10       1.0  0.05525  0.06326  0.97076  1.0000
  H   H11       1.0  0.20426  0.93291  0.06277  1.0000
  H   H12       1.0  0.26615  0.90737  0.01371  1.0000
  H   H13       1.0  0.26488  0.92440  0.93303  1.0000
  H   H14       1.0  0.20184  0.96716  0.90009  1.0000
  H   H15       1.0  0.03463  0.10740  0.03011  1.0000
  H   H16       1.0  0.01003  0.06388  0.06019  1.0000
  H   H17       1.0  0.97101  0.10506  0.97497  1.0000
  H   H18       1.0  0.95266  0.11555  0.02999  1.0000
