data_image0
_chemical_formula_structural       OCNC6OC5OC3N2C4ONC4H26
_chemical_formula_sum              "O4 C23 N4 H26"
_cell_length_a       30
_cell_length_b       30
_cell_length_c       30
_cell_angle_alpha    90
_cell_angle_beta     90
_cell_angle_gamma    90

_space_group_name_H-M_alt    "P 1"
_space_group_IT_number       1

loop_
  _space_group_symop_operation_xyz
  'x, y, z'

loop_
  _atom_site_type_symbol
  _atom_site_label
  _atom_site_symmetry_multiplicity
  _atom_site_fract_x
  _atom_site_fract_y
  _atom_site_fract_z
  _atom_site_occupancy
  O   O1        1.0  0.92271  0.96878  0.10760  1.0000
  C   C1        1.0  0.92399  0.97381  0.06715  1.0000
  N   N1        1.0  0.89103  0.99364  0.04251  1.0000
  C   C2        1.0  0.85217  0.01258  0.06369  1.0000
  C   C3        1.0  0.81803  0.02536  0.02919  1.0000
  C   C4        1.0  0.79068  0.99269  0.00968  1.0000
  C   C5        1.0  0.76056  0.00414  0.97617  1.0000
  C   C6        1.0  0.75736  0.04826  0.96186  1.0000
  C   C7        1.0  0.78443  0.08060  0.98128  1.0000
  O   O2        1.0  0.78263  0.12408  0.96813  1.0000
  C   C8        1.0  0.81462  0.06954  0.01455  1.0000
  C   C9        1.0  0.96401  0.96063  0.04040  1.0000
  C   C10       1.0  0.95558  0.93321  0.00575  1.0000
  C   C11       1.0  0.98659  0.91562  0.97319  1.0000
  C   C12       1.0  0.97382  0.88794  0.94061  1.0000
  O   O3        1.0  0.00183  0.87006  0.90939  1.0000
  C   C13       1.0  0.00657  0.98032  0.05878  1.0000
  C   C14       1.0  0.04822  0.95374  0.05238  1.0000
  C   C15       1.0  0.05793  0.91274  0.07092  1.0000
  N   N2        1.0  0.09922  0.90129  0.05613  1.0000
  N   N3        1.0  0.11752  0.93193  0.02918  1.0000
  C   C16       1.0  0.08730  0.96476  0.02746  1.0000
  C   C17       1.0  0.09675  0.00570  0.00075  1.0000
  C   C18       1.0  0.09669  0.99792  0.95035  1.0000
  C   C19       1.0  0.12612  0.03500  0.93331  1.0000
  O   O4        1.0  0.12811  0.04719  0.89453  1.0000
  N   N4        1.0  0.15058  0.05150  0.96918  1.0000
  C   C20       1.0  0.18478  0.08421  0.96517  1.0000
  C   C21       1.0  0.22505  0.08562  0.99508  1.0000
  C   C22       1.0  0.22997  0.07174  0.94739  1.0000
  C   C23       1.0  0.14236  0.02650  0.00923  1.0000
  H   H1        1.0  0.89680  0.00138  0.01024  1.0000
  H   H2        1.0  0.86302  0.04178  0.08282  1.0000
  H   H3        1.0  0.83827  0.98863  0.08759  1.0000
  H   H4        1.0  0.79305  0.95810  0.02019  1.0000
  H   H5        1.0  0.73984  0.97860  0.96095  1.0000
  H   H6        1.0  0.73403  0.05663  0.93559  1.0000
  H   H7        1.0  0.76013  0.12691  0.94501  1.0000
  H   H8        1.0  0.83555  0.09545  0.02894  1.0000
  H   H9        1.0  0.92113  0.92222  0.00067  1.0000
  H   H10       1.0  0.02128  0.92519  0.97512  1.0000
  H   H11       1.0  0.93994  0.87648  0.93530  1.0000
  H   H12       1.0  0.03219  0.87958  0.91570  1.0000
  H   H13       1.0  0.00334  0.98539  0.09496  1.0000
  H   H14       1.0  0.01039  0.01383  0.04470  1.0000
  H   H15       1.0  0.03908  0.89116  0.09282  1.0000
  H   H16       1.0  0.11684  0.87321  0.06294  1.0000
  H   H17       1.0  0.07154  0.03124  0.00809  1.0000
  H   H18       1.0  0.06308  0.00091  0.93654  1.0000
  H   H19       1.0  0.11121  0.96595  0.94063  1.0000
  H   H20       1.0  0.17158  0.11628  0.95461  1.0000
  H   H21       1.0  0.23777  0.11801  0.00455  1.0000
  H   H22       1.0  0.22947  0.06011  0.02028  1.0000
  H   H23       1.0  0.23632  0.03693  0.93995  1.0000
  H   H24       1.0  0.24575  0.09470  0.92441  1.0000
  H   H25       1.0  0.16901  0.00178  0.01271  1.0000
  H   H26       1.0  0.14222  0.04848  0.03829  1.0000
