data_image0
_chemical_formula_structural       OCOC2NCOCONC15H22
_chemical_formula_sum              "O4 C20 N2 H22"
_cell_length_a       30
_cell_length_b       30
_cell_length_c       30
_cell_angle_alpha    90
_cell_angle_beta     90
_cell_angle_gamma    90

_space_group_name_H-M_alt    "P 1"
_space_group_IT_number       1

loop_
  _space_group_symop_operation_xyz
  'x, y, z'

loop_
  _atom_site_type_symbol
  _atom_site_label
  _atom_site_symmetry_multiplicity
  _atom_site_fract_x
  _atom_site_fract_y
  _atom_site_fract_z
  _atom_site_occupancy
  O   O1        1.0  0.83286  0.01133  0.88899  1.0000
  C   C1        1.0  0.86113  0.03480  0.90638  1.0000
  O   O2        1.0  0.85500  0.07911  0.90968  1.0000
  C   C2        1.0  0.90472  0.01935  0.92575  1.0000
  C   C3        1.0  0.90134  0.99799  0.97259  1.0000
  N   N1        1.0  0.94542  0.97858  0.98393  1.0000
  C   C4        1.0  0.98513  0.00135  0.98701  1.0000
  O   O3        1.0  0.99121  0.04113  0.98052  1.0000
  C   C5        1.0  0.02501  0.97146  0.00012  1.0000
  O   O4        1.0  0.01829  0.93170  0.00602  1.0000
  N   N2        1.0  0.06391  0.99566  0.00324  1.0000
  C   C6        1.0  0.10722  0.98067  0.01433  1.0000
  C   C7        1.0  0.11526  0.93570  0.02403  1.0000
  C   C8        1.0  0.15786  0.92091  0.03494  1.0000
  C   C9        1.0  0.19314  0.95088  0.03633  1.0000
  C   C10       1.0  0.18647  0.99610  0.02686  1.0000
  C   C11       1.0  0.22290  0.02549  0.02858  1.0000
  C   C12       1.0  0.21773  0.07068  0.01941  1.0000
  C   C13       1.0  0.17597  0.08708  0.00837  1.0000
  C   C14       1.0  0.13937  0.05826  0.00651  1.0000
  C   C15       1.0  0.14327  0.01195  0.01564  1.0000
  C   C16       1.0  0.86708  0.95932  0.97283  1.0000
  C   C17       1.0  0.86352  0.93543  0.01795  1.0000
  C   C18       1.0  0.87303  0.96561  0.05784  1.0000
  C   C19       1.0  0.86142  0.01391  0.04797  1.0000
  C   C20       1.0  0.88744  0.03301  0.00826  1.0000
  H   H1        1.0  0.82610  0.08443  0.89540  1.0000
  H   H2        1.0  0.91902  0.99558  0.90185  1.0000
  H   H3        1.0  0.92770  0.04778  0.92584  1.0000
  H   H4        1.0  0.94787  0.94528  0.99019  1.0000
  H   H5        1.0  0.05965  0.02851  0.99647  1.0000
  H   H6        1.0  0.08885  0.91099  0.02340  1.0000
  H   H7        1.0  0.16345  0.88589  0.04236  1.0000
  H   H8        1.0  0.22613  0.93851  0.04495  1.0000
  H   H9        1.0  0.25595  0.01325  0.03719  1.0000
  H   H10       1.0  0.24628  0.09293  0.02090  1.0000
  H   H11       1.0  0.17162  0.12233  0.00116  1.0000
  H   H12       1.0  0.10759  0.07315  0.99768  1.0000
  H   H13       1.0  0.87516  0.93468  0.94703  1.0000
  H   H14       1.0  0.83385  0.97226  0.96475  1.0000
  H   H15       1.0  0.82991  0.92134  0.02095  1.0000
  H   H16       1.0  0.88639  0.90693  0.01893  1.0000
  H   H17       1.0  0.90835  0.96326  0.06699  1.0000
  H   H18       1.0  0.85420  0.95378  0.08684  1.0000
  H   H19       1.0  0.86745  0.03457  0.07750  1.0000
  H   H20       1.0  0.82558  0.01628  0.04098  1.0000
  H   H21       1.0  0.91677  0.05062  0.02107  1.0000
  H   H22       1.0  0.86639  0.05895  0.99349  1.0000
