data_image0
_chemical_formula_structural       OC2NCOC3NC2ClC9NCNH13
_chemical_formula_sum              "O2 C18 N4 Cl1 H13"
_cell_length_a       30
_cell_length_b       30
_cell_length_c       30
_cell_angle_alpha    90
_cell_angle_beta     90
_cell_angle_gamma    90

_space_group_name_H-M_alt    "P 1"
_space_group_IT_number       1

loop_
  _space_group_symop_operation_xyz
  'x, y, z'

loop_
  _atom_site_type_symbol
  _atom_site_label
  _atom_site_symmetry_multiplicity
  _atom_site_fract_x
  _atom_site_fract_y
  _atom_site_fract_z
  _atom_site_occupancy
  O   O1        1.0  0.02755  0.03847  0.99090  1.0000
  C   C1        1.0  0.01806  0.00585  0.96774  1.0000
  C   C2        1.0  0.05205  0.98206  0.93838  1.0000
  N   N1        1.0  0.09657  0.99434  0.95317  1.0000
  C   C3        1.0  0.11799  0.96936  0.98521  1.0000
  O   O2        1.0  0.10572  0.93266  0.99801  1.0000
  C   C4        1.0  0.15696  0.99106  0.00576  1.0000
  C   C5        1.0  0.15020  0.03107  0.02875  1.0000
  C   C6        1.0  0.18668  0.05092  0.04869  1.0000
  N   N2        1.0  0.22824  0.03375  0.04701  1.0000
  C   C7        1.0  0.23349  0.99474  0.02469  1.0000
  C   C8        1.0  0.19922  0.97204  0.00361  1.0000
  Cl  Cl1       1.0  0.21102  0.92368  0.97516  1.0000
  C   C9        1.0  0.97146  0.98896  0.96628  1.0000
  C   C10       1.0  0.94050  0.00569  0.99590  1.0000
  C   C11       1.0  0.89781  0.98889  0.99245  1.0000
  C   C12       1.0  0.86083  0.00322  0.02174  1.0000
  C   C13       1.0  0.81653  0.00294  0.00623  1.0000
  C   C14       1.0  0.78109  0.01655  0.03328  1.0000
  C   C15       1.0  0.78915  0.03064  0.07670  1.0000
  C   C16       1.0  0.83254  0.03098  0.09307  1.0000
  C   C17       1.0  0.86794  0.01737  0.06592  1.0000
  N   N3        1.0  0.88733  0.95807  0.96122  1.0000
  C   C18       1.0  0.92000  0.94411  0.93419  1.0000
  N   N4        1.0  0.96222  0.95822  0.93487  1.0000
  H   H1        1.0  0.04797  0.94590  0.94043  1.0000
  H   H2        1.0  0.04827  0.99352  0.90399  1.0000
  H   H3        1.0  0.10526  0.02673  0.94944  1.0000
  H   H4        1.0  0.11732  0.04592  0.03164  1.0000
  H   H5        1.0  0.18343  0.08190  0.06719  1.0000
  H   H6        1.0  0.26744  0.98209  0.02423  1.0000
  H   H7        1.0  0.94952  0.03097  0.02001  1.0000
  H   H8        1.0  0.80929  0.99199  0.97237  1.0000
  H   H9        1.0  0.74726  0.01598  0.02032  1.0000
  H   H10       1.0  0.76164  0.04114  0.09781  1.0000
  H   H11       1.0  0.83893  0.04164  0.12712  1.0000
  H   H12       1.0  0.90124  0.01744  0.08027  1.0000
  H   H13       1.0  0.91126  0.91915  0.90952  1.0000
