data_image0
_chemical_formula_structural       OC2NC5SC3NC7H26
_chemical_formula_sum              "O1 C17 N2 S1 H26"
_cell_length_a       30
_cell_length_b       30
_cell_length_c       30
_cell_angle_alpha    90
_cell_angle_beta     90
_cell_angle_gamma    90

_space_group_name_H-M_alt    "P 1"
_space_group_IT_number       1

loop_
  _space_group_symop_operation_xyz
  'x, y, z'

loop_
  _atom_site_type_symbol
  _atom_site_label
  _atom_site_symmetry_multiplicity
  _atom_site_fract_x
  _atom_site_fract_y
  _atom_site_fract_z
  _atom_site_occupancy
  O   O1        1.0  0.04543  0.98249  0.89742  1.0000
  C   C1        1.0  0.02525  0.98660  0.93277  1.0000
  C   C2        1.0  0.97750  0.96959  0.93932  1.0000
  N   N1        1.0  0.95314  0.00028  0.96895  1.0000
  C   C3        1.0  0.91057  0.98201  0.98461  1.0000
  C   C4        1.0  0.89179  0.01325  0.01974  1.0000
  C   C5        1.0  0.88815  0.00576  0.06509  1.0000
  C   C6        1.0  0.86852  0.04231  0.08817  1.0000
  C   C7        1.0  0.85794  0.07678  0.05986  1.0000
  S   S1        1.0  0.87192  0.06520  0.00589  1.0000
  C   C8        1.0  0.87913  0.97319  0.94611  1.0000
  C   C9        1.0  0.83796  0.94503  0.95318  1.0000
  C   C10       1.0  0.87572  0.92739  0.92543  1.0000
  N   N2        1.0  0.04287  0.00557  0.97088  1.0000
  C   C11       1.0  0.08591  0.02814  0.97156  1.0000
  C   C12       1.0  0.08946  0.05953  0.01195  1.0000
  C   C13       1.0  0.08410  0.03709  0.05739  1.0000
  C   C14       1.0  0.12669  0.01752  0.07711  1.0000
  C   C15       1.0  0.15792  0.99327  0.04519  1.0000
  C   C16       1.0  0.13493  0.96683  0.00835  1.0000
  C   C17       1.0  0.12491  0.99525  0.96725  1.0000
  H   H1        1.0  0.96155  0.96784  0.90654  1.0000
  H   H2        1.0  0.97982  0.93615  0.95376  1.0000
  H   H3        1.0  0.94688  0.02927  0.95221  1.0000
  H   H4        1.0  0.91755  0.95023  0.00156  1.0000
  H   H5        1.0  0.89905  0.97529  0.08102  1.0000
  H   H6        1.0  0.86259  0.04323  0.12378  1.0000
  H   H7        1.0  0.84274  0.10837  0.06817  1.0000
  H   H8        1.0  0.87554  0.00168  0.92415  1.0000
  H   H9        1.0  0.80758  0.95502  0.93615  1.0000
  H   H10       1.0  0.83236  0.93024  0.98567  1.0000
  H   H11       1.0  0.87110  0.92533  0.88964  1.0000
  H   H12       1.0  0.89539  0.90038  0.93912  1.0000
  H   H13       1.0  0.01865  0.01559  0.99248  1.0000
  H   H14       1.0  0.08652  0.04916  0.94156  1.0000
  H   H15       1.0  0.12086  0.07822  0.01063  1.0000
  H   H16       1.0  0.06273  0.08435  0.00889  1.0000
  H   H17       1.0  0.07164  0.06192  0.08112  1.0000
  H   H18       1.0  0.05836  0.01119  0.05610  1.0000
  H   H19       1.0  0.14566  0.04427  0.09345  1.0000
  H   H20       1.0  0.11712  0.99453  0.10393  1.0000
  H   H21       1.0  0.18133  0.01727  0.03055  1.0000
  H   H22       1.0  0.17848  0.97042  0.06501  1.0000
  H   H23       1.0  0.15797  0.94044  0.99777  1.0000
  H   H24       1.0  0.10491  0.94999  0.02057  1.0000
  H   H25       1.0  0.11879  0.97254  0.93927  1.0000
  H   H26       1.0  0.15501  0.01400  0.95820  1.0000
