data_image0
_chemical_formula_structural       OCOCNC6FC13N2H16
_chemical_formula_sum              "O2 C21 N3 F1 H16"
_cell_length_a       30
_cell_length_b       30
_cell_length_c       30
_cell_angle_alpha    90
_cell_angle_beta     90
_cell_angle_gamma    90

_space_group_name_H-M_alt    "P 1"
_space_group_IT_number       1

loop_
  _space_group_symop_operation_xyz
  'x, y, z'

loop_
  _atom_site_type_symbol
  _atom_site_label
  _atom_site_symmetry_multiplicity
  _atom_site_fract_x
  _atom_site_fract_y
  _atom_site_fract_z
  _atom_site_occupancy
  O   O1        1.0  0.87763  0.12544  0.06835  1.0000
  C   C1        1.0  0.85592  0.09215  0.07699  1.0000
  O   O2        1.0  0.81615  0.09625  0.09784  1.0000
  C   C2        1.0  0.86766  0.04371  0.06739  1.0000
  N   N1        1.0  0.91041  0.03922  0.04448  1.0000
  C   C3        1.0  0.92636  0.00055  0.02577  1.0000
  C   C4        1.0  0.96666  0.99032  0.00864  1.0000
  C   C5        1.0  0.97030  0.94491  0.98960  1.0000
  C   C6        1.0  0.97451  0.93942  0.94334  1.0000
  C   C7        1.0  0.97855  0.89681  0.92507  1.0000
  C   C8        1.0  0.97833  0.85985  0.95302  1.0000
  F   F1        1.0  0.98230  0.81900  0.93547  1.0000
  C   C9        1.0  0.97417  0.86462  0.99893  1.0000
  C   C10       1.0  0.97018  0.90719  0.01731  1.0000
  C   C11       1.0  0.00634  0.02352  0.00763  1.0000
  C   C12       1.0  0.04926  0.02697  0.99396  1.0000
  C   C13       1.0  0.08685  0.00099  0.97152  1.0000
  C   C14       1.0  0.08927  0.95484  0.97612  1.0000
  C   C15       1.0  0.12361  0.93128  0.95536  1.0000
  C   C16       1.0  0.15555  0.95392  0.93028  1.0000
  C   C17       1.0  0.15326  0.00015  0.92601  1.0000
  C   C18       1.0  0.11893  0.02379  0.94670  1.0000
  C   C19       1.0  0.04957  0.07351  0.01103  1.0000
  C   C20       1.0  0.06292  0.11496  0.02164  1.0000
  C   C21       1.0  0.02328  0.13225  0.04267  1.0000
  N   N2        1.0  0.98925  0.10256  0.04418  1.0000
  N   N3        1.0  0.00795  0.06836  0.02423  1.0000
  H   H1        1.0  0.81310  0.12856  0.10177  1.0000
  H   H2        1.0  0.86920  0.02589  0.09920  1.0000
  H   H3        1.0  0.84109  0.02964  0.04668  1.0000
  H   H4        1.0  0.93171  0.06582  0.04810  1.0000
  H   H5        1.0  0.90022  0.97524  0.02496  1.0000
  H   H6        1.0  0.97486  0.96831  0.92142  1.0000
  H   H7        1.0  0.98196  0.89230  0.88934  1.0000
  H   H8        1.0  0.97416  0.83527  0.02007  1.0000
  H   H9        1.0  0.96724  0.91089  0.05327  1.0000
  H   H10       1.0  0.06514  0.93679  0.99609  1.0000
  H   H11       1.0  0.12548  0.89527  0.95888  1.0000
  H   H12       1.0  0.18227  0.93552  0.91414  1.0000
  H   H13       1.0  0.17818  0.01779  0.90651  1.0000
  H   H14       1.0  0.11740  0.05977  0.94290  1.0000
  H   H15       1.0  0.09452  0.13130  0.01634  1.0000
  H   H16       1.0  0.01825  0.16510  0.05680  1.0000
