data_image0
_chemical_formula_structural       OCNC4NCSN2C5ClC7BrCH14
_chemical_formula_sum              "O1 C19 N4 S1 Cl1 Br1 H14"
_cell_length_a       30
_cell_length_b       30
_cell_length_c       30
_cell_angle_alpha    90
_cell_angle_beta     90
_cell_angle_gamma    90

_space_group_name_H-M_alt    "P 1"
_space_group_IT_number       1

loop_
  _space_group_symop_operation_xyz
  'x, y, z'

loop_
  _atom_site_type_symbol
  _atom_site_label
  _atom_site_symmetry_multiplicity
  _atom_site_fract_x
  _atom_site_fract_y
  _atom_site_fract_z
  _atom_site_occupancy
  O   O1        1.0  0.05987  0.98128  0.96277  1.0000
  C   C1        1.0  0.06432  0.99682  0.00025  1.0000
  N   N1        1.0  0.03534  0.99072  0.03562  1.0000
  C   C2        1.0  0.99371  0.97034  0.03442  1.0000
  C   C3        1.0  0.97387  0.96091  0.07394  1.0000
  C   C4        1.0  0.93056  0.93938  0.07645  1.0000
  C   C5        1.0  0.91250  0.92468  0.03859  1.0000
  N   N2        1.0  0.87163  0.90577  0.03307  1.0000
  C   C6        1.0  0.86355  0.90168  0.98726  1.0000
  S   S1        1.0  0.81552  0.88832  0.96406  1.0000
  N   N3        1.0  0.90294  0.91389  0.96462  1.0000
  N   N4        1.0  0.93273  0.92908  0.99780  1.0000
  C   C7        1.0  0.97067  0.95883  0.98902  1.0000
  C   C8        1.0  0.95462  0.00040  0.96404  1.0000
  C   C9        1.0  0.92435  0.03061  0.98329  1.0000
  C   C10       1.0  0.90970  0.06800  0.95969  1.0000
  C   C11       1.0  0.92511  0.07558  0.91658  1.0000
  Cl  Cl1       1.0  0.90719  0.12172  0.88761  1.0000
  C   C12       1.0  0.95490  0.04603  0.89678  1.0000
  C   C13       1.0  0.96946  0.00858  0.92034  1.0000
  C   C14       1.0  0.10516  0.02301  0.01061  1.0000
  C   C15       1.0  0.10417  0.05911  0.04028  1.0000
  C   C16       1.0  0.14312  0.08305  0.04904  1.0000
  C   C17       1.0  0.18293  0.07122  0.02807  1.0000
  C   C18       1.0  0.18362  0.03566  0.99812  1.0000
  Br  Br1       1.0  0.23755  0.02007  0.96949  1.0000
  C   C19       1.0  0.14495  0.01158  0.98910  1.0000
  H   H1        1.0  0.04700  0.99905  0.06620  1.0000
  H   H2        1.0  0.98947  0.96875  0.10563  1.0000
  H   H3        1.0  0.91406  0.93623  0.10839  1.0000
  H   H4        1.0  0.84840  0.90123  0.05688  1.0000
  H   H5        1.0  0.90090  0.93019  0.93506  1.0000
  H   H6        1.0  0.99386  0.93957  0.96844  1.0000
  H   H7        1.0  0.91167  0.02499  0.01678  1.0000
  H   H8        1.0  0.88624  0.09090  0.97509  1.0000
  H   H9        1.0  0.96706  0.05189  0.86317  1.0000
  H   H10       1.0  0.99303  0.98592  0.90454  1.0000
  H   H11       1.0  0.07324  0.06965  0.05594  1.0000
  H   H12       1.0  0.14244  0.11121  0.07187  1.0000
  H   H13       1.0  0.21309  0.09010  0.03497  1.0000
  H   H14       1.0  0.14552  0.98401  0.96554  1.0000
