data_image0
_chemical_formula_structural       OC2NCOCSC6NC5OH18
_chemical_formula_sum              "O3 C15 N2 S1 H18"
_cell_length_a       30
_cell_length_b       30
_cell_length_c       30
_cell_angle_alpha    90
_cell_angle_beta     90
_cell_angle_gamma    90

_space_group_name_H-M_alt    "P 1"
_space_group_IT_number       1

loop_
  _space_group_symop_operation_xyz
  'x, y, z'

loop_
  _atom_site_type_symbol
  _atom_site_label
  _atom_site_symmetry_multiplicity
  _atom_site_fract_x
  _atom_site_fract_y
  _atom_site_fract_z
  _atom_site_occupancy
  O   O1        1.0  0.99138  0.05532  0.99644  1.0000
  C   C1        1.0  0.00968  0.01868  0.99328  1.0000
  C   C2        1.0  0.98364  0.97504  0.98675  1.0000
  N   N1        1.0  0.93674  0.98236  0.97478  1.0000
  C   C3        1.0  0.92733  0.98269  0.92919  1.0000
  O   O2        1.0  0.95671  0.97846  0.90062  1.0000
  C   C4        1.0  0.87901  0.98307  0.91515  1.0000
  S   S1        1.0  0.84840  0.02727  0.94108  1.0000
  C   C5        1.0  0.86384  0.01500  0.99706  1.0000
  C   C6        1.0  0.83364  0.02811  0.03035  1.0000
  C   C7        1.0  0.84337  0.02131  0.07517  1.0000
  C   C8        1.0  0.88358  0.00175  0.08696  1.0000
  C   C9        1.0  0.91400  0.98893  0.05399  1.0000
  C   C10       1.0  0.90483  0.99495  0.00838  1.0000
  N   N2        1.0  0.05587  0.01377  0.99521  1.0000
  C   C11       1.0  0.08289  0.04908  0.01462  1.0000
  C   C12       1.0  0.13194  0.04667  0.00070  1.0000
  C   C13       1.0  0.15631  0.00602  0.01948  1.0000
  C   C14       1.0  0.14854  0.96243  0.99405  1.0000
  C   C15       1.0  0.10090  0.95389  0.97859  1.0000
  O   O3        1.0  0.06986  0.97111  0.01034  1.0000
  H   H1        1.0  0.00001  0.95613  0.96009  1.0000
  H   H2        1.0  0.98612  0.95418  0.01650  1.0000
  H   H3        1.0  0.86415  0.95070  0.92314  1.0000
  H   H4        1.0  0.87727  0.98761  0.87899  1.0000
  H   H5        1.0  0.80229  0.04403  0.02143  1.0000
  H   H6        1.0  0.81982  0.03162  0.10069  1.0000
  H   H7        1.0  0.89164  0.99663  0.12193  1.0000
  H   H8        1.0  0.94481  0.97409  0.06568  1.0000
  H   H9        1.0  0.07938  0.04750  0.05098  1.0000
  H   H10       1.0  0.06932  0.08126  0.00388  1.0000
  H   H11       1.0  0.13500  0.04754  0.96429  1.0000
  H   H12       1.0  0.14850  0.07666  0.01348  1.0000
  H   H13       1.0  0.14706  0.00142  0.05457  1.0000
  H   H14       1.0  0.19226  0.01271  0.01937  1.0000
  H   H15       1.0  0.17069  0.96081  0.96501  1.0000
  H   H16       1.0  0.15887  0.93502  0.01598  1.0000
  H   H17       1.0  0.09513  0.91797  0.97557  1.0000
  H   H18       1.0  0.09524  0.96821  0.94539  1.0000
