data_image0
_chemical_formula_structural       OC3NC2BrCNC2OC9FC2H20
_chemical_formula_sum              "O2 C19 N2 Br1 F1 H20"
_cell_length_a       30
_cell_length_b       30
_cell_length_c       30
_cell_angle_alpha    90
_cell_angle_beta     90
_cell_angle_gamma    90

_space_group_name_H-M_alt    "P 1"
_space_group_IT_number       1

loop_
  _space_group_symop_operation_xyz
  'x, y, z'

loop_
  _atom_site_type_symbol
  _atom_site_label
  _atom_site_symmetry_multiplicity
  _atom_site_fract_x
  _atom_site_fract_y
  _atom_site_fract_z
  _atom_site_occupancy
  O   O1        1.0  0.02703  0.92278  0.01145  1.0000
  C   C1        1.0  0.04876  0.95688  0.00438  1.0000
  C   C2        1.0  0.09795  0.95314  0.00709  1.0000
  C   C3        1.0  0.12589  0.97498  0.97726  1.0000
  N   N1        1.0  0.17097  0.97157  0.97800  1.0000
  C   C4        1.0  0.18868  0.94458  0.00959  1.0000
  C   C5        1.0  0.16335  0.92085  0.04016  1.0000
  Br  Br1       1.0  0.19086  0.88372  0.08272  1.0000
  C   C6        1.0  0.11720  0.92493  0.03878  1.0000
  N   N2        1.0  0.02920  0.99720  0.99088  1.0000
  C   C7        1.0  0.98266  0.99399  0.97507  1.0000
  C   C8        1.0  0.94830  0.99490  0.01346  1.0000
  O   O2        1.0  0.94166  0.04014  0.02708  1.0000
  C   C9        1.0  0.90377  0.97401  0.99918  1.0000
  C   C10       1.0  0.86821  0.97358  0.03570  1.0000
  C   C11       1.0  0.82562  0.96214  0.01053  1.0000
  C   C12       1.0  0.83150  0.98195  0.96397  1.0000
  C   C13       1.0  0.87965  0.99836  0.96137  1.0000
  C   C14       1.0  0.04545  0.04030  0.00383  1.0000
  C   C15       1.0  0.07020  0.04610  0.04319  1.0000
  C   C16       1.0  0.08588  0.08819  0.05565  1.0000
  C   C17       1.0  0.07666  0.12482  0.02900  1.0000
  F   F1        1.0  0.09160  0.16514  0.04096  1.0000
  C   C18       1.0  0.05194  0.12016  0.99021  1.0000
  C   C19       1.0  0.03626  0.07805  0.97776  1.0000
  H   H1        1.0  0.11287  0.99617  0.95093  1.0000
  H   H2        1.0  0.22484  0.94254  0.00931  1.0000
  H   H3        1.0  0.09620  0.90648  0.06183  1.0000
  H   H4        1.0  0.97977  0.96231  0.95699  1.0000
  H   H5        1.0  0.97576  0.02020  0.95071  1.0000
  H   H6        1.0  0.96133  0.97661  0.04230  1.0000
  H   H7        1.0  0.93005  0.03954  0.05733  1.0000
  H   H8        1.0  0.90995  0.93942  0.98878  1.0000
  H   H9        1.0  0.86458  0.00637  0.05141  1.0000
  H   H10       1.0  0.87553  0.94925  0.06188  1.0000
  H   H11       1.0  0.82188  0.92587  0.00807  1.0000
  H   H12       1.0  0.79598  0.97514  0.02735  1.0000
  H   H13       1.0  0.82505  0.95648  0.93859  1.0000
  H   H14       1.0  0.80816  0.00938  0.95806  1.0000
  H   H15       1.0  0.89445  0.99138  0.92877  1.0000
  H   H16       1.0  0.88038  0.03456  0.96633  1.0000
  H   H17       1.0  0.07657  0.01850  0.06574  1.0000
  H   H18       1.0  0.10484  0.09257  0.08615  1.0000
  H   H19       1.0  0.04495  0.14921  0.96981  1.0000
  H   H20       1.0  0.01762  0.07555  0.94684  1.0000
