data_image0
_chemical_formula_structural       OCNCNC4F3C3SOC6H9
_chemical_formula_sum              "O2 C15 N2 F3 S1 H9"
_cell_length_a       30
_cell_length_b       30
_cell_length_c       30
_cell_angle_alpha    90
_cell_angle_beta     90
_cell_angle_gamma    90

_space_group_name_H-M_alt    "P 1"
_space_group_IT_number       1

loop_
  _space_group_symop_operation_xyz
  'x, y, z'

loop_
  _atom_site_type_symbol
  _atom_site_label
  _atom_site_symmetry_multiplicity
  _atom_site_fract_x
  _atom_site_fract_y
  _atom_site_fract_z
  _atom_site_occupancy
  O   O1        1.0  0.93688  0.03340  0.01406  1.0000
  C   C1        1.0  0.94091  0.99576  0.99901  1.0000
  N   N1        1.0  0.97939  0.97324  0.99014  1.0000
  C   C2        1.0  0.02224  0.98758  0.99604  1.0000
  N   N2        1.0  0.05605  0.96182  0.98587  1.0000
  C   C3        1.0  0.09562  0.98383  0.99481  1.0000
  C   C4        1.0  0.13883  0.96664  0.98810  1.0000
  C   C5        1.0  0.17650  0.99261  0.99841  1.0000
  C   C6        1.0  0.22265  0.97367  0.99186  1.0000
  F   F1        1.0  0.25414  0.00557  0.98464  1.0000
  F   F2        1.0  0.22538  0.94537  0.95648  1.0000
  F   F3        1.0  0.23682  0.95006  0.02791  1.0000
  C   C7        1.0  0.17058  0.03549  0.01590  1.0000
  C   C8        1.0  0.12800  0.05326  0.02283  1.0000
  C   C9        1.0  0.09099  0.02679  0.01200  1.0000
  S   S1        1.0  0.03511  0.03881  0.01657  1.0000
  O   O2        1.0  0.90542  0.96797  0.98780  1.0000
  C   C10       1.0  0.86290  0.98614  0.99405  1.0000
  C   C11       1.0  0.83586  0.96753  0.02692  1.0000
  C   C12       1.0  0.79270  0.98377  0.03265  1.0000
  C   C13       1.0  0.77685  0.01797  0.00532  1.0000
  C   C14       1.0  0.80405  0.03593  0.97206  1.0000
  C   C15       1.0  0.84724  0.01982  0.96612  1.0000
  H   H1        1.0  0.97641  0.94216  0.97771  1.0000
  H   H2        1.0  0.14247  0.93311  0.97480  1.0000
  H   H3        1.0  0.19954  0.05578  0.02435  1.0000
  H   H4        1.0  0.12375  0.08661  0.03630  1.0000
  H   H5        1.0  0.84821  0.94081  0.04794  1.0000
  H   H6        1.0  0.77135  0.96982  0.05838  1.0000
  H   H7        1.0  0.74321  0.03065  0.00991  1.0000
  H   H8        1.0  0.79156  0.06249  0.95083  1.0000
  H   H9        1.0  0.86837  0.03369  0.94023  1.0000
