data_image0
_chemical_formula_structural       OC2NC12SH11
_chemical_formula_sum              "O1 C14 N1 S1 H11"
_cell_length_a       30
_cell_length_b       30
_cell_length_c       30
_cell_angle_alpha    90
_cell_angle_beta     90
_cell_angle_gamma    90

_space_group_name_H-M_alt    "P 1"
_space_group_IT_number       1

loop_
  _space_group_symop_operation_xyz
  'x, y, z'

loop_
  _atom_site_type_symbol
  _atom_site_label
  _atom_site_symmetry_multiplicity
  _atom_site_fract_x
  _atom_site_fract_y
  _atom_site_fract_z
  _atom_site_occupancy
  O   O1        1.0  0.02960  0.95916  0.96053  1.0000
  C   C1        1.0  0.04463  0.99230  0.97964  1.0000
  C   C2        1.0  0.01436  0.03042  0.99588  1.0000
  N   N1        1.0  0.96618  0.01834  0.99558  1.0000
  C   C3        1.0  0.94149  0.02625  0.95696  1.0000
  C   C4        1.0  0.89867  0.01995  0.94570  1.0000
  C   C5        1.0  0.86238  0.00190  0.97168  1.0000
  C   C6        1.0  0.86405  0.98557  0.01312  1.0000
  C   C7        1.0  0.90582  0.98365  0.04199  1.0000
  C   C8        1.0  0.91844  0.96991  0.08247  1.0000
  C   C9        1.0  0.96264  0.98455  0.07258  1.0000
  C   C10       1.0  0.94993  0.99890  0.03157  1.0000
  C   C11       1.0  0.09278  0.99700  0.98650  1.0000
  C   C12       1.0  0.12488  0.96538  0.97647  1.0000
  C   C13       1.0  0.16889  0.97987  0.98677  1.0000
  C   C14       1.0  0.16921  0.02228  0.00422  1.0000
  S   S1        1.0  0.11677  0.04416  0.00795  1.0000
  H   H1        1.0  0.02005  0.05947  0.97438  1.0000
  H   H2        1.0  0.02405  0.04010  0.02978  1.0000
  H   H3        1.0  0.96247  0.04028  0.93082  1.0000
  H   H4        1.0  0.88903  0.02941  0.91198  1.0000
  H   H5        1.0  0.83038  0.00128  0.95458  1.0000
  H   H6        1.0  0.83384  0.97239  0.02805  1.0000
  H   H7        1.0  0.90256  0.95421  0.11082  1.0000
  H   H8        1.0  0.99361  0.98415  0.09118  1.0000
  H   H9        1.0  0.11678  0.93309  0.96231  1.0000
  H   H10       1.0  0.19873  0.96020  0.98156  1.0000
  H   H11       1.0  0.19778  0.04152  0.01490  1.0000
