data_image0
_chemical_formula_structural       OCNC7BrC4FC3BrH12
_chemical_formula_sum              "O1 C15 N1 Br2 F1 H12"
_cell_length_a       30
_cell_length_b       30
_cell_length_c       30
_cell_angle_alpha    90
_cell_angle_beta     90
_cell_angle_gamma    90

_space_group_name_H-M_alt    "P 1"
_space_group_IT_number       1

loop_
  _space_group_symop_operation_xyz
  'x, y, z'

loop_
  _atom_site_type_symbol
  _atom_site_label
  _atom_site_symmetry_multiplicity
  _atom_site_fract_x
  _atom_site_fract_y
  _atom_site_fract_z
  _atom_site_occupancy
  O   O1        1.0  0.96389  0.98213  0.05909  1.0000
  C   C1        1.0  0.94796  0.98756  0.02187  1.0000
  N   N1        1.0  0.97220  0.98415  0.98307  1.0000
  C   C2        1.0  0.02000  0.97681  0.98367  1.0000
  C   C3        1.0  0.04586  0.01954  0.99410  1.0000
  C   C4        1.0  0.09555  0.01193  0.99322  1.0000
  C   C5        1.0  0.12030  0.02065  0.95456  1.0000
  C   C6        1.0  0.16620  0.01299  0.95369  1.0000
  C   C7        1.0  0.18779  0.99642  0.99138  1.0000
  C   C8        1.0  0.16331  0.98756  0.02985  1.0000
  Br  Br1       1.0  0.19252  0.96498  0.08092  1.0000
  C   C9        1.0  0.11745  0.99514  0.03096  1.0000
  C   C10       1.0  0.89953  0.99622  0.01707  1.0000
  C   C11       1.0  0.87142  0.97006  0.04378  1.0000
  C   C12       1.0  0.82554  0.97557  0.04129  1.0000
  F   F1        1.0  0.79890  0.95024  0.06660  1.0000
  C   C13       1.0  0.80681  0.00694  0.01287  1.0000
  C   C14       1.0  0.83450  0.03358  0.98666  1.0000
  C   C15       1.0  0.88093  0.02849  0.98875  1.0000
  Br  Br2       1.0  0.91538  0.06833  0.95359  1.0000
  H   H1        1.0  0.95739  0.99084  0.95350  1.0000
  H   H2        1.0  0.02920  0.96382  0.95080  1.0000
  H   H3        1.0  0.02746  0.95092  0.00836  1.0000
  H   H4        1.0  0.03624  0.03276  0.02682  1.0000
  H   H5        1.0  0.03696  0.04566  0.97007  1.0000
  H   H6        1.0  0.10399  0.03357  0.92485  1.0000
  H   H7        1.0  0.18515  0.01996  0.92361  1.0000
  H   H8        1.0  0.22352  0.99057  0.99044  1.0000
  H   H9        1.0  0.09858  0.98806  0.06112  1.0000
  H   H10       1.0  0.88511  0.94533  0.06646  1.0000
  H   H11       1.0  0.77082  0.01071  0.01158  1.0000
  H   H12       1.0  0.81954  0.05853  0.96499  1.0000
