data_image0
_chemical_formula_structural       OCNCNC6NC2F2COF2C6F3CH12
_chemical_formula_sum              "O2 C18 N3 F7 H12"
_cell_length_a       30
_cell_length_b       30
_cell_length_c       30
_cell_angle_alpha    90
_cell_angle_beta     90
_cell_angle_gamma    90

_space_group_name_H-M_alt    "P 1"
_space_group_IT_number       1

loop_
  _space_group_symop_operation_xyz
  'x, y, z'

loop_
  _atom_site_type_symbol
  _atom_site_label
  _atom_site_symmetry_multiplicity
  _atom_site_fract_x
  _atom_site_fract_y
  _atom_site_fract_z
  _atom_site_occupancy
  O   O1        1.0  0.04962  0.91272  0.95844  1.0000
  C   C1        1.0  0.04917  0.95177  0.97023  1.0000
  N   N1        1.0  0.01576  0.97438  0.99252  1.0000
  C   C2        1.0  0.97530  0.95489  0.00227  1.0000
  N   N2        1.0  0.96244  0.91434  0.99219  1.0000
  C   C3        1.0  0.91906  0.91066  0.00564  1.0000
  C   C4        1.0  0.88973  0.87449  0.00162  1.0000
  C   C5        1.0  0.84630  0.87883  0.01806  1.0000
  C   C6        1.0  0.83241  0.91842  0.03814  1.0000
  C   C7        1.0  0.86130  0.95482  0.04257  1.0000
  C   C8        1.0  0.90465  0.94979  0.02588  1.0000
  N   N3        1.0  0.94163  0.97711  0.02466  1.0000
  C   C9        1.0  0.94523  0.01962  0.04759  1.0000
  C   C10       1.0  0.94780  0.05930  0.01635  1.0000
  F   F1        1.0  0.98779  0.05805  0.99452  1.0000
  F   F2        1.0  0.91557  0.05667  0.98469  1.0000
  C   C11       1.0  0.94363  0.10280  0.04297  1.0000
  O   O2        1.0  0.94694  0.14217  0.01762  1.0000
  F   F3        1.0  0.97577  0.10532  0.07466  1.0000
  F   F4        1.0  0.90422  0.10500  0.06490  1.0000
  C   C12       1.0  0.08888  0.97960  0.95914  1.0000
  C   C13       1.0  0.11118  0.97142  0.91899  1.0000
  C   C14       1.0  0.14842  0.99667  0.90731  1.0000
  C   C15       1.0  0.16374  0.03010  0.93581  1.0000
  C   C16       1.0  0.14206  0.03856  0.97640  1.0000
  C   C17       1.0  0.15943  0.07383  0.00779  1.0000
  F   F5        1.0  0.19045  0.05761  0.03660  1.0000
  F   F6        1.0  0.12667  0.09190  0.03361  1.0000
  F   F7        1.0  0.17901  0.10875  0.98643  1.0000
  C   C18       1.0  0.10472  0.01272  0.98805  1.0000
  H   H1        1.0  0.01867  0.00773  0.99619  1.0000
  H   H2        1.0  0.90090  0.84393  0.98587  1.0000
  H   H3        1.0  0.82325  0.85103  0.01501  1.0000
  H   H4        1.0  0.79843  0.92104  0.05057  1.0000
  H   H5        1.0  0.84989  0.98538  0.05813  1.0000
  H   H6        1.0  0.91650  0.02262  0.06987  1.0000
  H   H7        1.0  0.97510  0.01764  0.06857  1.0000
  H   H8        1.0  0.94150  0.16540  0.03948  1.0000
  H   H9        1.0  0.09946  0.94521  0.89675  1.0000
  H   H10       1.0  0.16556  0.99011  0.87603  1.0000
  H   H11       1.0  0.19299  0.04943  0.92631  1.0000
  H   H12       1.0  0.08887  0.01817  0.02022  1.0000
