data_image0
_chemical_formula_structural       OCNC3NC6NCNC3ClCOCOC7H19
_chemical_formula_sum              "O3 C23 N4 Cl1 H19"
_cell_length_a       30
_cell_length_b       30
_cell_length_c       30
_cell_angle_alpha    90
_cell_angle_beta     90
_cell_angle_gamma    90

_space_group_name_H-M_alt    "P 1"
_space_group_IT_number       1

loop_
  _space_group_symop_operation_xyz
  'x, y, z'

loop_
  _atom_site_type_symbol
  _atom_site_label
  _atom_site_symmetry_multiplicity
  _atom_site_fract_x
  _atom_site_fract_y
  _atom_site_fract_z
  _atom_site_occupancy
  O   O1        1.0  0.01470  0.96203  0.03594  1.0000
  C   C1        1.0  0.00088  0.94680  0.00074  1.0000
  N   N1        1.0  0.96102  0.92406  0.99745  1.0000
  C   C2        1.0  0.93215  0.92015  0.03587  1.0000
  C   C3        1.0  0.89972  0.95749  0.03513  1.0000
  C   C4        1.0  0.85671  0.95797  0.01876  1.0000
  N   N2        1.0  0.83967  0.00018  0.02564  1.0000
  C   C5        1.0  0.79658  0.01656  0.01439  1.0000
  C   C6        1.0  0.76472  0.98917  0.99392  1.0000
  C   C7        1.0  0.72267  0.00624  0.98326  1.0000
  C   C8        1.0  0.71219  0.05047  0.99289  1.0000
  C   C9        1.0  0.74367  0.07786  0.01324  1.0000
  C   C10       1.0  0.78573  0.06106  0.02399  1.0000
  N   N3        1.0  0.87027  0.02688  0.04561  1.0000
  C   C11       1.0  0.90602  0.00114  0.05122  1.0000
  N   N4        1.0  0.02198  0.94853  0.95996  1.0000
  C   C12       1.0  0.06166  0.97137  0.94935  1.0000
  C   C13       1.0  0.08055  0.96307  0.90746  1.0000
  C   C14       1.0  0.11960  0.98490  0.89448  1.0000
  Cl  Cl1       1.0  0.14167  0.97413  0.84243  1.0000
  C   C15       1.0  0.14034  0.01517  0.92302  1.0000
  O   O2        1.0  0.17796  0.03765  0.91028  1.0000
  C   C16       1.0  0.12190  0.02305  0.96498  1.0000
  O   O3        1.0  0.14010  0.05347  0.99411  1.0000
  C   C17       1.0  0.17988  0.04162  0.01381  1.0000
  C   C18       1.0  0.18832  0.99919  0.03110  1.0000
  C   C19       1.0  0.22909  0.99029  0.05173  1.0000
  C   C20       1.0  0.26116  0.02378  0.05543  1.0000
  C   C21       1.0  0.25246  0.06629  0.03873  1.0000
  C   C22       1.0  0.21173  0.07526  0.01814  1.0000
  C   C23       1.0  0.08229  0.00193  0.97779  1.0000
  H   H1        1.0  0.94540  0.92626  0.96777  1.0000
  H   H2        1.0  0.95152  0.92001  0.06680  1.0000
  H   H3        1.0  0.91486  0.88813  0.03309  1.0000
  H   H4        1.0  0.83734  0.93194  0.00328  1.0000
  H   H5        1.0  0.77134  0.95455  0.98586  1.0000
  H   H6        1.0  0.69798  0.98495  0.96741  1.0000
  H   H7        1.0  0.67946  0.06361  0.98457  1.0000
  H   H8        1.0  0.73558  0.11237  0.02081  1.0000
  H   H9        1.0  0.80979  0.08310  0.03990  1.0000
  H   H10       1.0  0.93552  0.01516  0.06670  1.0000
  H   H11       1.0  0.01007  0.92716  0.93688  1.0000
  H   H12       1.0  0.06502  0.93966  0.88459  1.0000
  H   H13       1.0  0.18614  0.02727  0.88062  1.0000
  H   H14       1.0  0.16340  0.97302  0.02919  1.0000
  H   H15       1.0  0.23571  0.95730  0.06513  1.0000
  H   H16       1.0  0.29285  0.01679  0.07154  1.0000
  H   H17       1.0  0.27732  0.09245  0.04178  1.0000
  H   H18       1.0  0.20485  0.10834  0.00512  1.0000
  H   H19       1.0  0.06845  0.01016  0.01022  1.0000
