data_image0
_chemical_formula_structural       OCNC6FC2NC2NC5NC2NC10H32
_chemical_formula_sum              "O1 C28 N5 F1 H32"
_cell_length_a       30
_cell_length_b       30
_cell_length_c       30
_cell_angle_alpha    90
_cell_angle_beta     90
_cell_angle_gamma    90

_space_group_name_H-M_alt    "P 1"
_space_group_IT_number       1

loop_
  _space_group_symop_operation_xyz
  'x, y, z'

loop_
  _atom_site_type_symbol
  _atom_site_label
  _atom_site_symmetry_multiplicity
  _atom_site_fract_x
  _atom_site_fract_y
  _atom_site_fract_z
  _atom_site_occupancy
  O   O1        1.0  0.88104  0.06757  0.06064  1.0000
  C   C1        1.0  0.87477  0.05535  0.02214  1.0000
  N   N1        1.0  0.89176  0.01634  0.00498  1.0000
  C   C2        1.0  0.91768  0.98602  0.03198  1.0000
  C   C3        1.0  0.96552  0.00429  0.04018  1.0000
  C   C4        1.0  0.99592  0.97497  0.06836  1.0000
  C   C5        1.0  0.98010  0.95882  0.10962  1.0000
  C   C6        1.0  0.00677  0.93211  0.13659  1.0000
  C   C7        1.0  0.04970  0.92212  0.12294  1.0000
  F   F1        1.0  0.07578  0.89703  0.14912  1.0000
  C   C8        1.0  0.06645  0.93829  0.08287  1.0000
  C   C9        1.0  0.04001  0.96475  0.05469  1.0000
  N   N2        1.0  0.05707  0.98293  0.01497  1.0000
  C   C10       1.0  0.08200  0.95234  0.98505  1.0000
  C   C11       1.0  0.11684  0.97728  0.95642  1.0000
  N   N3        1.0  0.14913  0.00029  0.98549  1.0000
  C   C12       1.0  0.18556  0.01945  0.96397  1.0000
  C   C13       1.0  0.22085  0.03738  0.98850  1.0000
  C   C14       1.0  0.25748  0.05599  0.96670  1.0000
  C   C15       1.0  0.25843  0.05624  0.92055  1.0000
  C   C16       1.0  0.22274  0.03741  0.89834  1.0000
  N   N4        1.0  0.18705  0.01911  0.91892  1.0000
  C   C17       1.0  0.12989  0.02439  0.02393  1.0000
  C   C18       1.0  0.07845  0.02699  0.02199  1.0000
  N   N5        1.0  0.91652  0.94245  0.01071  1.0000
  C   C19       1.0  0.93890  0.93625  0.96825  1.0000
  C   C20       1.0  0.92644  0.88843  0.95730  1.0000
  C   C21       1.0  0.87853  0.88450  0.97339  1.0000
  C   C22       1.0  0.87384  0.91936  0.01015  1.0000
  C   C23       1.0  0.84652  0.08254  0.99164  1.0000
  C   C24       1.0  0.81510  0.11147  0.01055  1.0000
  C   C25       1.0  0.78796  0.13770  0.98331  1.0000
  C   C26       1.0  0.79220  0.13535  0.93709  1.0000
  C   C27       1.0  0.82373  0.10700  0.91803  1.0000
  C   C28       1.0  0.85100  0.08070  0.94516  1.0000
  H   H1        1.0  0.88081  0.00462  0.97557  1.0000
  H   H2        1.0  0.90085  0.98353  0.06435  1.0000
  H   H3        1.0  0.96353  0.03667  0.05711  1.0000
  H   H4        1.0  0.98067  0.01154  0.00773  1.0000
  H   H5        1.0  0.94668  0.96700  0.12109  1.0000
  H   H6        1.0  0.99445  0.91940  0.16815  1.0000
  H   H7        1.0  0.10082  0.93055  0.07471  1.0000
  H   H8        1.0  0.05810  0.93566  0.96302  1.0000
  H   H9        1.0  0.09950  0.92613  0.00351  1.0000
  H   H10       1.0  0.13381  0.95264  0.93540  1.0000
  H   H11       1.0  0.09996  0.00124  0.93452  1.0000
  H   H12       1.0  0.22053  0.03625  0.02464  1.0000
  H   H13       1.0  0.28495  0.06979  0.98582  1.0000
  H   H14       1.0  0.28625  0.07039  0.90237  1.0000
  H   H15       1.0  0.22178  0.03627  0.86216  1.0000
  H   H16       1.0  0.14013  0.00704  0.05441  1.0000
  H   H17       1.0  0.14240  0.05869  0.02616  1.0000
  H   H18       1.0  0.06880  0.04828  0.99387  1.0000
  H   H19       1.0  0.06585  0.04370  0.05195  1.0000
  H   H20       1.0  0.92622  0.95874  0.94239  1.0000
  H   H21       1.0  0.97508  0.93990  0.97036  1.0000
  H   H22       1.0  0.92977  0.88086  0.92178  1.0000
  H   H23       1.0  0.94771  0.86518  0.97592  1.0000
  H   H24       1.0  0.85557  0.89222  0.94599  1.0000
  H   H25       1.0  0.87109  0.85077  0.98522  1.0000
  H   H26       1.0  0.86755  0.90348  0.04244  1.0000
  H   H27       1.0  0.84553  0.94121  0.00261  1.0000
  H   H28       1.0  0.81171  0.11361  0.04662  1.0000
  H   H29       1.0  0.76364  0.16006  0.99823  1.0000
  H   H30       1.0  0.77113  0.15590  0.91593  1.0000
  H   H31       1.0  0.82735  0.10565  0.88198  1.0000
  H   H32       1.0  0.87605  0.05982  0.92945  1.0000
