data_image0
_chemical_formula_structural       OCOC4SCNC7N2H11
_chemical_formula_sum              "O2 C13 S1 N3 H11"
_cell_length_a       30
_cell_length_b       30
_cell_length_c       30
_cell_angle_alpha    90
_cell_angle_beta     90
_cell_angle_gamma    90

_space_group_name_H-M_alt    "P 1"
_space_group_IT_number       1

loop_
  _space_group_symop_operation_xyz
  'x, y, z'

loop_
  _atom_site_type_symbol
  _atom_site_label
  _atom_site_symmetry_multiplicity
  _atom_site_fract_x
  _atom_site_fract_y
  _atom_site_fract_z
  _atom_site_occupancy
  O   O1        1.0  0.18108  0.00051  0.97170  1.0000
  C   C1        1.0  0.16281  0.01799  0.00351  1.0000
  O   O2        1.0  0.16335  0.06248  0.00896  1.0000
  C   C2        1.0  0.13762  0.99421  0.03962  1.0000
  C   C3        1.0  0.08728  0.99906  0.03400  1.0000
  C   C4        1.0  0.06594  0.97291  0.99704  1.0000
  C   C5        1.0  0.08427  0.94452  0.96731  1.0000
  S   S1        1.0  0.04513  0.92132  0.92962  1.0000
  C   C6        1.0  0.00383  0.95162  0.95596  1.0000
  N   N1        1.0  0.96103  0.95637  0.95118  1.0000
  C   C7        1.0  0.95130  0.98637  0.98501  1.0000
  C   C8        1.0  0.90589  0.00218  0.99292  1.0000
  C   C9        1.0  0.89656  0.03255  0.02724  1.0000
  C   C10       1.0  0.85305  0.04749  0.03455  1.0000
  C   C11       1.0  0.81839  0.03223  0.00765  1.0000
  C   C12       1.0  0.82715  0.00206  0.97344  1.0000
  C   C13       1.0  0.87066  0.98711  0.96611  1.0000
  N   N2        1.0  0.98682  0.99936  0.00951  1.0000
  N   N3        1.0  0.02023  0.97659  0.99017  1.0000
  H   H1        1.0  0.18055  0.07371  0.98353  1.0000
  H   H2        1.0  0.14813  0.00833  0.07166  1.0000
  H   H3        1.0  0.14792  0.95917  0.04014  1.0000
  H   H4        1.0  0.07905  0.03443  0.02950  1.0000
  H   H5        1.0  0.07167  0.98863  0.06542  1.0000
  H   H6        1.0  0.11913  0.93549  0.96496  1.0000
  H   H7        1.0  0.92322  0.04482  0.04856  1.0000
  H   H8        1.0  0.84629  0.07102  0.06126  1.0000
  H   H9        1.0  0.78455  0.04384  0.01334  1.0000
  H   H10       1.0  0.80019  0.99010  0.95240  1.0000
  H   H11       1.0  0.87693  0.96355  0.93924  1.0000
