data_image0
_chemical_formula_structural       OC2SO2C9NCSC2H15
_chemical_formula_sum              "O3 C14 S2 N1 H15"
_cell_length_a       30
_cell_length_b       30
_cell_length_c       30
_cell_angle_alpha    90
_cell_angle_beta     90
_cell_angle_gamma    90

_space_group_name_H-M_alt    "P 1"
_space_group_IT_number       1

loop_
  _space_group_symop_operation_xyz
  'x, y, z'

loop_
  _atom_site_type_symbol
  _atom_site_label
  _atom_site_symmetry_multiplicity
  _atom_site_fract_x
  _atom_site_fract_y
  _atom_site_fract_z
  _atom_site_occupancy
  O   O1        1.0  0.99838  0.94149  0.99268  1.0000
  C   C1        1.0  0.01790  0.97357  0.97609  1.0000
  C   C2        1.0  0.99352  0.00491  0.94591  1.0000
  S   S1        1.0  0.96289  0.04452  0.97718  1.0000
  O   O2        1.0  0.93569  0.06904  0.94552  1.0000
  O   O3        1.0  0.99461  0.06839  0.00489  1.0000
  C   C3        1.0  0.92638  0.01375  0.01325  1.0000
  C   C4        1.0  0.89309  0.98426  0.98808  1.0000
  C   C5        1.0  0.84725  0.00370  0.99810  1.0000
  C   C6        1.0  0.85255  0.02347  0.04436  1.0000
  C   C7        1.0  0.89826  0.04523  0.04219  1.0000
  C   C8        1.0  0.06639  0.98005  0.98561  1.0000
  C   C9        1.0  0.08849  0.02019  0.97740  1.0000
  C   C10       1.0  0.13409  0.02456  0.98671  1.0000
  C   C11       1.0  0.15810  0.98839  0.00457  1.0000
  N   N1        1.0  0.20302  0.98824  0.01511  1.0000
  C   C12       1.0  0.21409  0.94908  0.03125  1.0000
  S   S2        1.0  0.17236  0.91033  0.03473  1.0000
  C   C13       1.0  0.13546  0.94859  0.01289  1.0000
  C   C14       1.0  0.08976  0.94372  0.00379  1.0000
  H   H1        1.0  0.97050  0.98597  0.92494  1.0000
  H   H2        1.0  0.01588  0.02270  0.92337  1.0000
  H   H3        1.0  0.94759  0.99347  0.03493  1.0000
  H   H4        1.0  0.89882  0.98215  0.95216  1.0000
  H   H5        1.0  0.89487  0.95025  0.00139  1.0000
  H   H6        1.0  0.83924  0.02997  0.97399  1.0000
  H   H7        1.0  0.82094  0.97851  0.99666  1.0000
  H   H8        1.0  0.85226  0.99706  0.06961  1.0000
  H   H9        1.0  0.82620  0.04734  0.05241  1.0000
  H   H10       1.0  0.89531  0.07843  0.02718  1.0000
  H   H11       1.0  0.91271  0.04959  0.07541  1.0000
  H   H12       1.0  0.07134  0.04940  0.96454  1.0000
  H   H13       1.0  0.15121  0.05588  0.98054  1.0000
  H   H14       1.0  0.24774  0.94150  0.04182  1.0000
  H   H15       1.0  0.07309  0.91228  0.01071  1.0000
