data_image0
_chemical_formula_structural       OCNC5OC2F3C6ClC2ClH12
_chemical_formula_sum              "O2 C16 N1 F3 Cl2 H12"
_cell_length_a       30
_cell_length_b       30
_cell_length_c       30
_cell_angle_alpha    90
_cell_angle_beta     90
_cell_angle_gamma    90

_space_group_name_H-M_alt    "P 1"
_space_group_IT_number       1

loop_
  _space_group_symop_operation_xyz
  'x, y, z'

loop_
  _atom_site_type_symbol
  _atom_site_label
  _atom_site_symmetry_multiplicity
  _atom_site_fract_x
  _atom_site_fract_y
  _atom_site_fract_z
  _atom_site_occupancy
  O   O1        1.0  0.89097  0.06632  0.94106  1.0000
  C   C1        1.0  0.90233  0.03968  0.96973  1.0000
  N   N1        1.0  0.94578  0.02749  0.97798  1.0000
  C   C2        1.0  0.98191  0.04935  0.95491  1.0000
  C   C3        1.0  0.02567  0.02741  0.96581  1.0000
  C   C4        1.0  0.05324  0.04450  0.99940  1.0000
  C   C5        1.0  0.09350  0.02353  0.01019  1.0000
  C   C6        1.0  0.10656  0.98503  0.98765  1.0000
  O   O2        1.0  0.14477  0.96129  0.99485  1.0000
  C   C7        1.0  0.17539  0.97852  0.02716  1.0000
  C   C8        1.0  0.21648  0.94898  0.03024  1.0000
  F   F1        1.0  0.20607  0.90702  0.04286  1.0000
  F   F2        1.0  0.24522  0.96545  0.06096  1.0000
  F   F3        1.0  0.23858  0.94677  0.99107  1.0000
  C   C9        1.0  0.07897  0.96769  0.95441  1.0000
  C   C10       1.0  0.03881  0.98857  0.94355  1.0000
  C   C11       1.0  0.86878  0.01731  0.99806  1.0000
  C   C12       1.0  0.86754  0.97053  0.99808  1.0000
  C   C13       1.0  0.83578  0.94816  0.02368  1.0000
  C   C14       1.0  0.80539  0.97247  0.04910  1.0000
  Cl  Cl1       1.0  0.76634  0.94481  0.08069  1.0000
  C   C15       1.0  0.80646  0.01894  0.04927  1.0000
  C   C16       1.0  0.83820  0.04154  0.02367  1.0000
  Cl  Cl2       1.0  0.83901  0.09899  0.02699  1.0000
  H   H1        1.0  0.95317  0.00942  0.00548  1.0000
  H   H2        1.0  0.97558  0.04838  0.91892  1.0000
  H   H3        1.0  0.98213  0.08456  0.96471  1.0000
  H   H4        1.0  0.04354  0.07446  0.01744  1.0000
  H   H5        1.0  0.11365  0.03823  0.03638  1.0000
  H   H6        1.0  0.15939  0.97955  0.05999  1.0000
  H   H7        1.0  0.18597  0.01215  0.01754  1.0000
  H   H8        1.0  0.08884  0.93761  0.93673  1.0000
  H   H9        1.0  0.01785  0.97436  0.91758  1.0000
  H   H10       1.0  0.89072  0.95152  0.97767  1.0000
  H   H11       1.0  0.83470  0.91192  0.02347  1.0000
  H   H12       1.0  0.78272  0.03751  0.06939  1.0000
