data_image0
_chemical_formula_structural       OC11N2CONC8H21
_chemical_formula_sum              "O2 C20 N3 H21"
_cell_length_a       30
_cell_length_b       30
_cell_length_c       30
_cell_angle_alpha    90
_cell_angle_beta     90
_cell_angle_gamma    90

_space_group_name_H-M_alt    "P 1"
_space_group_IT_number       1

loop_
  _space_group_symop_operation_xyz
  'x, y, z'

loop_
  _atom_site_type_symbol
  _atom_site_label
  _atom_site_symmetry_multiplicity
  _atom_site_fract_x
  _atom_site_fract_y
  _atom_site_fract_z
  _atom_site_occupancy
  O   O1        1.0  0.01953  0.06597  0.01881  1.0000
  C   C1        1.0  0.01217  0.04001  0.04949  1.0000
  C   C2        1.0  0.96913  0.03957  0.07591  1.0000
  C   C3        1.0  0.93124  0.06571  0.05380  1.0000
  C   C4        1.0  0.91773  0.04916  0.00681  1.0000
  C   C5        1.0  0.90776  0.99936  0.00581  1.0000
  C   C6        1.0  0.93529  0.97065  0.98110  1.0000
  C   C7        1.0  0.92719  0.92485  0.98037  1.0000
  C   C8        1.0  0.89150  0.90716  0.00422  1.0000
  C   C9        1.0  0.86384  0.93522  0.02881  1.0000
  C   C10       1.0  0.87188  0.98104  0.02966  1.0000
  C   C11       1.0  0.87945  0.07602  0.98922  1.0000
  N   N1        1.0  0.84449  0.09250  0.01021  1.0000
  N   N2        1.0  0.81936  0.11426  0.97843  1.0000
  C   C12       1.0  0.84078  0.10938  0.94064  1.0000
  O   O2        1.0  0.87924  0.08565  0.94450  1.0000
  N   N3        1.0  0.04239  0.00857  0.06384  1.0000
  C   C13       1.0  0.08460  0.00182  0.04118  1.0000
  C   C14       1.0  0.07912  0.97467  0.99834  1.0000
  C   C15       1.0  0.12324  0.96624  0.97581  1.0000
  C   C16       1.0  0.14667  0.92656  0.98342  1.0000
  C   C17       1.0  0.18781  0.91924  0.96294  1.0000
  C   C18       1.0  0.20591  0.95151  0.93484  1.0000
  C   C19       1.0  0.18293  0.99114  0.92719  1.0000
  C   C20       1.0  0.14180  0.99854  0.94762  1.0000
  H   H1        1.0  0.97627  0.05451  0.10850  1.0000
  H   H2        1.0  0.95895  0.00502  0.08194  1.0000
  H   H3        1.0  0.94080  0.10100  0.05154  1.0000
  H   H4        1.0  0.90239  0.06459  0.07631  1.0000
  H   H5        1.0  0.94570  0.05557  0.98414  1.0000
  H   H6        1.0  0.96334  0.98380  0.96218  1.0000
  H   H7        1.0  0.94865  0.90299  0.96101  1.0000
  H   H8        1.0  0.88507  0.87151  0.00349  1.0000
  H   H9        1.0  0.83583  0.92147  0.04723  1.0000
  H   H10       1.0  0.84971  0.00238  0.04893  1.0000
  H   H11       1.0  0.83198  0.12149  0.90794  1.0000
  H   H12       1.0  0.03278  0.98588  0.08689  1.0000
  H   H13       1.0  0.09926  0.03450  0.03393  1.0000
  H   H14       1.0  0.10667  0.98466  0.06468  1.0000
  H   H15       1.0  0.05675  0.99180  0.97501  1.0000
  H   H16       1.0  0.06276  0.94279  0.00580  1.0000
  H   H17       1.0  0.13306  0.90106  0.00529  1.0000
  H   H18       1.0  0.20576  0.88835  0.96891  1.0000
  H   H19       1.0  0.23793  0.94578  0.91890  1.0000
  H   H20       1.0  0.19703  0.01635  0.90532  1.0000
  H   H21       1.0  0.12425  0.02969  0.94143  1.0000
