data_image0
_chemical_formula_structural       OC6BrC2NC5NCOC2OC6OCH19
_chemical_formula_sum              "O4 C23 Br1 N2 H19"
_cell_length_a       30
_cell_length_b       30
_cell_length_c       30
_cell_angle_alpha    90
_cell_angle_beta     90
_cell_angle_gamma    90

_space_group_name_H-M_alt    "P 1"
_space_group_IT_number       1

loop_
  _space_group_symop_operation_xyz
  'x, y, z'

loop_
  _atom_site_type_symbol
  _atom_site_label
  _atom_site_symmetry_multiplicity
  _atom_site_fract_x
  _atom_site_fract_y
  _atom_site_fract_z
  _atom_site_occupancy
  O   O1        1.0  0.92144  0.97706  0.04653  1.0000
  C   C1        1.0  0.89168  0.95942  0.02461  1.0000
  C   C2        1.0  0.84304  0.96323  0.03874  1.0000
  C   C3        1.0  0.82655  0.01078  0.03841  1.0000
  C   C4        1.0  0.81276  0.03086  0.99850  1.0000
  C   C5        1.0  0.79813  0.07506  0.99821  1.0000
  C   C6        1.0  0.79736  0.09939  0.03780  1.0000
  Br  Br1       1.0  0.77766  0.15921  0.03739  1.0000
  C   C7        1.0  0.81119  0.07998  0.07764  1.0000
  C   C8        1.0  0.82587  0.03581  0.07791  1.0000
  N   N1        1.0  0.89734  0.93441  0.98610  1.0000
  C   C9        1.0  0.93762  0.92548  0.96350  1.0000
  C   C10       1.0  0.93548  0.89686  0.92675  1.0000
  C   C11       1.0  0.97391  0.88645  0.90275  1.0000
  C   C12       1.0  0.01491  0.90463  0.91512  1.0000
  C   C13       1.0  0.01768  0.93342  0.95147  1.0000
  N   N2        1.0  0.05756  0.95330  0.96621  1.0000
  C   C14       1.0  0.09975  0.95017  0.94758  1.0000
  O   O2        1.0  0.10989  0.92874  0.91418  1.0000
  C   C15       1.0  0.13472  0.97505  0.97537  1.0000
  C   C16       1.0  0.17517  0.98672  0.94701  1.0000
  O   O3        1.0  0.20937  0.00655  0.97396  1.0000
  C   C17       1.0  0.19228  0.03845  0.00189  1.0000
  C   C18       1.0  0.22273  0.06743  0.02159  1.0000
  C   C19       1.0  0.20764  0.10119  0.04986  1.0000
  C   C20       1.0  0.16213  0.10583  0.05847  1.0000
  C   C21       1.0  0.13165  0.07651  0.03913  1.0000
  C   C22       1.0  0.14678  0.04253  0.01126  1.0000
  O   O4        1.0  0.11508  0.01453  0.99404  1.0000
  C   C23       1.0  0.97883  0.94363  0.97549  1.0000
  H   H1        1.0  0.82138  0.94294  0.01747  1.0000
  H   H2        1.0  0.84016  0.94887  0.07225  1.0000
  H   H3        1.0  0.81347  0.01238  0.96730  1.0000
  H   H4        1.0  0.78764  0.09024  0.96703  1.0000
  H   H5        1.0  0.81096  0.09893  0.10855  1.0000
  H   H6        1.0  0.83718  0.02118  0.10913  1.0000
  H   H7        1.0  0.86982  0.92002  0.97290  1.0000
  H   H8        1.0  0.90409  0.88209  0.91630  1.0000
  H   H9        1.0  0.97209  0.86405  0.87431  1.0000
  H   H10       1.0  0.04403  0.89566  0.89563  1.0000
  H   H11       1.0  0.05502  0.97450  0.99256  1.0000
  H   H12       1.0  0.14427  0.95297  0.00303  1.0000
  H   H13       1.0  0.18960  0.95691  0.93157  1.0000
  H   H14       1.0  0.16658  0.01008  0.92014  1.0000
  H   H15       1.0  0.25812  0.06397  0.01462  1.0000
  H   H16       1.0  0.23136  0.12395  0.06504  1.0000
  H   H17       1.0  0.15040  0.13224  0.08035  1.0000
  H   H18       1.0  0.09626  0.08003  0.04605  1.0000
  H   H19       1.0  0.98137  0.96631  0.00355  1.0000
