data_image0
_chemical_formula_structural       OC16NSO2C2NC6H32
_chemical_formula_sum              "O3 C24 N2 S1 H32"
_cell_length_a       30
_cell_length_b       30
_cell_length_c       30
_cell_angle_alpha    90
_cell_angle_beta     90
_cell_angle_gamma    90

_space_group_name_H-M_alt    "P 1"
_space_group_IT_number       1

loop_
  _space_group_symop_operation_xyz
  'x, y, z'

loop_
  _atom_site_type_symbol
  _atom_site_label
  _atom_site_symmetry_multiplicity
  _atom_site_fract_x
  _atom_site_fract_y
  _atom_site_fract_z
  _atom_site_occupancy
  O   O1        1.0  0.89317  0.02085  0.06650  1.0000
  C   C1        1.0  0.92359  0.00963  0.04106  1.0000
  C   C2        1.0  0.91974  0.01806  0.99078  1.0000
  C   C3        1.0  0.87950  0.99235  0.97233  1.0000
  C   C4        1.0  0.83516  0.01741  0.97215  1.0000
  C   C5        1.0  0.82905  0.04678  0.93104  1.0000
  C   C6        1.0  0.85677  0.08933  0.93073  1.0000
  C   C7        1.0  0.90697  0.08230  0.93521  1.0000
  C   C8        1.0  0.92092  0.06838  0.98213  1.0000
  C   C9        1.0  0.96326  0.98353  0.05901  1.0000
  C   C10       1.0  0.95457  0.93338  0.05751  1.0000
  C   C11       1.0  0.98095  0.91685  0.01724  1.0000
  C   C12       1.0  0.99161  0.86699  0.02012  1.0000
  C   C13       1.0  0.03673  0.85676  0.99930  1.0000
  C   C14       1.0  0.07441  0.88137  0.02327  1.0000
  C   C15       1.0  0.06073  0.92676  0.04248  1.0000
  C   C16       1.0  0.02223  0.94736  0.01642  1.0000
  N   N1        1.0  0.00503  0.99055  0.03345  1.0000
  S   S1        1.0  0.03882  0.03086  0.05322  1.0000
  O   O2        1.0  0.06259  0.01332  0.09126  1.0000
  O   O3        1.0  0.01268  0.07124  0.05627  1.0000
  C   C17       1.0  0.07830  0.04285  0.01316  1.0000
  C   C18       1.0  0.06999  0.04556  0.96790  1.0000
  N   N2        1.0  0.10924  0.05602  0.94724  1.0000
  C   C19       1.0  0.14287  0.06022  0.97820  1.0000
  C   C20       1.0  0.18794  0.07062  0.97199  1.0000
  C   C21       1.0  0.21504  0.07313  0.00978  1.0000
  C   C22       1.0  0.19766  0.06558  0.05211  1.0000
  C   C23       1.0  0.15252  0.05526  0.05779  1.0000
  C   C24       1.0  0.12430  0.05234  0.02026  1.0000
  H   H1        1.0  0.94907  0.00364  0.97450  1.0000
  H   H2        1.0  0.87507  0.96161  0.99169  1.0000
  H   H3        1.0  0.88714  0.98130  0.93828  1.0000
  H   H4        1.0  0.83052  0.03673  0.00278  1.0000
  H   H5        1.0  0.80842  0.99244  0.97160  1.0000
  H   H6        1.0  0.79381  0.05634  0.92892  1.0000
  H   H7        1.0  0.83614  0.02741  0.90085  1.0000
  H   H8        1.0  0.84505  0.11170  0.95719  1.0000
  H   H9        1.0  0.85033  0.10671  0.89919  1.0000
  H   H10       1.0  0.91914  0.05857  0.91024  1.0000
  H   H11       1.0  0.92311  0.11429  0.92779  1.0000
  H   H12       1.0  0.95538  0.07954  0.98733  1.0000
  H   H13       1.0  0.90116  0.08655  0.00702  1.0000
  H   H14       1.0  0.96784  0.99365  0.09385  1.0000
  H   H15       1.0  0.91920  0.92474  0.05504  1.0000
  H   H16       1.0  0.96731  0.91830  0.08830  1.0000
  H   H17       1.0  0.96141  0.92308  0.98692  1.0000
  H   H18       1.0  0.99180  0.85550  0.05483  1.0000
  H   H19       1.0  0.96540  0.84797  0.00321  1.0000
  H   H20       1.0  0.04317  0.82081  0.99994  1.0000
  H   H21       1.0  0.03624  0.86659  0.96408  1.0000
  H   H22       1.0  0.08737  0.86067  0.05046  1.0000
  H   H23       1.0  0.10211  0.88579  0.99983  1.0000
  H   H24       1.0  0.05129  0.92255  0.07757  1.0000
  H   H25       1.0  0.09012  0.94837  0.04228  1.0000
  H   H26       1.0  0.03260  0.95224  0.98170  1.0000
  H   H27       1.0  0.03951  0.04137  0.94909  1.0000
  H   H28       1.0  0.11328  0.06062  0.91409  1.0000
  H   H29       1.0  0.20163  0.07673  0.93905  1.0000
  H   H30       1.0  0.25018  0.08121  0.00606  1.0000
  H   H31       1.0  0.21923  0.06776  0.08116  1.0000
  H   H32       1.0  0.13966  0.04957  0.09120  1.0000
