data_image0
_chemical_formula_structural       OCNC7NC5H20
_chemical_formula_sum              "O1 C13 N2 H20"
_cell_length_a       30
_cell_length_b       30
_cell_length_c       30
_cell_angle_alpha    90
_cell_angle_beta     90
_cell_angle_gamma    90

_space_group_name_H-M_alt    "P 1"
_space_group_IT_number       1

loop_
  _space_group_symop_operation_xyz
  'x, y, z'

loop_
  _atom_site_type_symbol
  _atom_site_label
  _atom_site_symmetry_multiplicity
  _atom_site_fract_x
  _atom_site_fract_y
  _atom_site_fract_z
  _atom_site_occupancy
  O   O1        1.0  0.96066  0.95695  0.05275  1.0000
  C   C1        1.0  0.94875  0.98315  0.02373  1.0000
  N   N1        1.0  0.97596  0.01666  0.00771  1.0000
  C   C2        1.0  0.02115  0.02261  0.02394  1.0000
  C   C3        1.0  0.05386  0.99096  0.00117  1.0000
  C   C4        1.0  0.06289  0.00204  0.95184  1.0000
  C   C5        1.0  0.11394  0.00389  0.95000  1.0000
  C   C6        1.0  0.13064  0.04666  0.97226  1.0000
  C   C7        1.0  0.12273  0.03721  0.02185  1.0000
  C   C8        1.0  0.10114  0.99099  0.02114  1.0000
  N   N2        1.0  0.12668  0.97088  0.98407  1.0000
  C   C9        1.0  0.90368  0.98098  0.00077  1.0000
  C   C10       1.0  0.87712  0.02442  0.00565  1.0000
  C   C11       1.0  0.83003  0.00856  0.00854  1.0000
  C   C12       1.0  0.82790  0.96467  0.01589  1.0000
  C   C13       1.0  0.87324  0.94425  0.01927  1.0000
  H   H1        1.0  0.96634  0.03400  0.98044  1.0000
  H   H2        1.0  0.02134  0.01696  0.06003  1.0000
  H   H3        1.0  0.02970  0.05756  0.01790  1.0000
  H   H4        1.0  0.04058  0.95684  0.00286  1.0000
  H   H5        1.0  0.04759  0.03335  0.94099  1.0000
  H   H6        1.0  0.05012  0.97512  0.93066  1.0000
  H   H7        1.0  0.12786  0.99812  0.91686  1.0000
  H   H8        1.0  0.11258  0.07630  0.96101  1.0000
  H   H9        1.0  0.16628  0.05184  0.96605  1.0000
  H   H10       1.0  0.10216  0.06279  0.03766  1.0000
  H   H11       1.0  0.15475  0.03631  0.03948  1.0000
  H   H12       1.0  0.10387  0.97302  0.05270  1.0000
  H   H13       1.0  0.11401  0.94027  0.97632  1.0000
  H   H14       1.0  0.90985  0.97432  0.96526  1.0000
  H   H15       1.0  0.88607  0.04334  0.03556  1.0000
  H   H16       1.0  0.88189  0.04583  0.97648  1.0000
  H   H17       1.0  0.80140  0.03033  0.00611  1.0000
  H   H18       1.0  0.79736  0.94601  0.02027  1.0000
  H   H19       1.0  0.87560  0.91409  0.99886  1.0000
  H   H20       1.0  0.88031  0.93536  0.05394  1.0000
