data_image0
_chemical_formula_structural       OC2NC5ONC15FC2H27
_chemical_formula_sum              "O2 C24 N2 F1 H27"
_cell_length_a       30
_cell_length_b       30
_cell_length_c       30
_cell_angle_alpha    90
_cell_angle_beta     90
_cell_angle_gamma    90

_space_group_name_H-M_alt    "P 1"
_space_group_IT_number       1

loop_
  _space_group_symop_operation_xyz
  'x, y, z'

loop_
  _atom_site_type_symbol
  _atom_site_label
  _atom_site_symmetry_multiplicity
  _atom_site_fract_x
  _atom_site_fract_y
  _atom_site_fract_z
  _atom_site_occupancy
  O   O1        1.0  0.16663  0.04173  0.04480  1.0000
  C   C1        1.0  0.15177  0.01286  0.01974  1.0000
  C   C2        1.0  0.10479  0.99427  0.02568  1.0000
  N   N1        1.0  0.07296  0.01681  0.99590  1.0000
  C   C3        1.0  0.06773  0.06445  0.00704  1.0000
  C   C4        1.0  0.02031  0.08247  0.00101  1.0000
  C   C5        1.0  0.99790  0.06405  0.95920  1.0000
  C   C6        1.0  0.00135  0.01299  0.95675  1.0000
  C   C7        1.0  0.95606  0.98998  0.95631  1.0000
  O   O2        1.0  0.94626  0.96399  0.92626  1.0000
  N   N2        1.0  0.92877  0.99976  0.99197  1.0000
  C   C8        1.0  0.88256  0.98256  0.99977  1.0000
  C   C9        1.0  0.86259  0.00458  0.04501  1.0000
  C   C10       1.0  0.83666  0.04369  0.04445  1.0000
  C   C11       1.0  0.81913  0.06249  0.08330  1.0000
  C   C12       1.0  0.82745  0.04263  0.12431  1.0000
  C   C13       1.0  0.85383  0.00471  0.12646  1.0000
  C   C14       1.0  0.87115  0.98620  0.08739  1.0000
  C   C15       1.0  0.87837  0.93044  0.99588  1.0000
  C   C16       1.0  0.83431  0.93772  0.97058  1.0000
  C   C17       1.0  0.85143  0.98423  0.95757  1.0000
  C   C18       1.0  0.03035  0.99305  0.99384  1.0000
  C   C19       1.0  0.18077  0.99469  0.98347  1.0000
  C   C20       1.0  0.22669  0.00349  0.98549  1.0000
  C   C21       1.0  0.25540  0.98609  0.95324  1.0000
  C   C22       1.0  0.23816  0.96015  0.91887  1.0000
  F   F1        1.0  0.26578  0.94294  0.88830  1.0000
  C   C23       1.0  0.19270  0.95166  0.91601  1.0000
  C   C24       1.0  0.16384  0.96910  0.94815  1.0000
  H   H1        1.0  0.10602  0.95831  0.01918  1.0000
  H   H2        1.0  0.09521  0.99753  0.06087  1.0000
  H   H3        1.0  0.07772  0.07153  0.04152  1.0000
  H   H4        1.0  0.09021  0.08336  0.98532  1.0000
  H   H5        1.0  0.00016  0.07361  0.03011  1.0000
  H   H6        1.0  0.02109  0.11898  0.99955  1.0000
  H   H7        1.0  0.96311  0.07534  0.95809  1.0000
  H   H8        1.0  0.01403  0.07860  0.92964  1.0000
  H   H9        1.0  0.01694  0.00481  0.92465  1.0000
  H   H10       1.0  0.94020  0.02255  0.01421  1.0000
  H   H11       1.0  0.82971  0.06014  0.01284  1.0000
  H   H12       1.0  0.79890  0.09233  0.08145  1.0000
  H   H13       1.0  0.81361  0.05688  0.15456  1.0000
  H   H14       1.0  0.86056  0.98896  0.15840  1.0000
  H   H15       1.0  0.89205  0.95668  0.09030  1.0000
  H   H16       1.0  0.87498  0.91157  0.02679  1.0000
  H   H17       1.0  0.90392  0.91380  0.97588  1.0000
  H   H18       1.0  0.82791  0.91517  0.94290  1.0000
  H   H19       1.0  0.80492  0.93843  0.99224  1.0000
  H   H20       1.0  0.82564  0.00998  0.95654  1.0000
  H   H21       1.0  0.86823  0.98475  0.92517  1.0000
  H   H22       1.0  0.03605  0.95775  0.98588  1.0000
  H   H23       1.0  0.01354  0.99354  0.02635  1.0000
  H   H24       1.0  0.24026  0.02379  0.01240  1.0000
  H   H25       1.0  0.29097  0.99249  0.95487  1.0000
  H   H26       1.0  0.17997  0.93155  0.88876  1.0000
  H   H27       1.0  0.12837  0.96250  0.94480  1.0000
