data_image0
_chemical_formula_structural       OC5NC4NCNC5FC2SO2C4NC4FC3H24
_chemical_formula_sum              "O3 C28 N4 F2 S1 H24"
_cell_length_a       30
_cell_length_b       30
_cell_length_c       30
_cell_angle_alpha    90
_cell_angle_beta     90
_cell_angle_gamma    90

_space_group_name_H-M_alt    "P 1"
_space_group_IT_number       1

loop_
  _space_group_symop_operation_xyz
  'x, y, z'

loop_
  _atom_site_type_symbol
  _atom_site_label
  _atom_site_symmetry_multiplicity
  _atom_site_fract_x
  _atom_site_fract_y
  _atom_site_fract_z
  _atom_site_occupancy
  O   O1        1.0  0.15110  0.97576  0.03441  1.0000
  C   C1        1.0  0.17998  0.00055  0.01924  1.0000
  C   C2        1.0  0.22845  0.98596  0.02059  1.0000
  C   C3        1.0  0.25752  0.02006  0.04437  1.0000
  C   C4        1.0  0.24523  0.06801  0.03255  1.0000
  C   C5        1.0  0.21381  0.07005  0.99269  1.0000
  N   N1        1.0  0.17368  0.04298  0.00035  1.0000
  C   C6        1.0  0.13284  0.06295  0.99121  1.0000
  C   C7        1.0  0.09211  0.04603  0.98368  1.0000
  C   C8        1.0  0.07778  0.00035  0.97814  1.0000
  C   C9        1.0  0.03510  0.98770  0.97395  1.0000
  N   N2        1.0  0.99864  0.01605  0.97447  1.0000
  C   C10       1.0  0.96388  0.99096  0.96800  1.0000
  N   N3        1.0  0.91971  0.00781  0.96712  1.0000
  C   C11       1.0  0.91048  0.04974  0.99247  1.0000
  C   C12       1.0  0.90253  0.04014  0.04142  1.0000
  C   C13       1.0  0.93869  0.03614  0.07092  1.0000
  C   C14       1.0  0.93154  0.02622  0.11580  1.0000
  C   C15       1.0  0.88832  0.02021  0.13123  1.0000
  F   F1        1.0  0.88146  0.01064  0.17429  1.0000
  C   C16       1.0  0.85206  0.02389  0.10263  1.0000
  C   C17       1.0  0.85908  0.03372  0.05770  1.0000
  S   S1        1.0  0.89033  0.00447  0.91833  1.0000
  O   O2        1.0  0.89492  0.04664  0.89531  1.0000
  O   O3        1.0  0.90028  0.96296  0.89594  1.0000
  C   C18       1.0  0.83463  0.00026  0.93685  1.0000
  C   C19       1.0  0.81878  0.96122  0.95652  1.0000
  C   C20       1.0  0.77465  0.95963  0.97075  1.0000
  C   C21       1.0  0.74826  0.99709  0.96456  1.0000
  N   N4        1.0  0.76290  0.03513  0.94522  1.0000
  C   C22       1.0  0.80576  0.03574  0.93102  1.0000
  C   C23       1.0  0.97404  0.94343  0.96466  1.0000
  C   C24       1.0  0.94818  0.90548  0.96197  1.0000
  C   C25       1.0  0.97043  0.86479  0.96152  1.0000
  F   F2        1.0  0.94665  0.82706  0.95889  1.0000
  C   C26       1.0  0.01698  0.86217  0.96441  1.0000
  C   C27       1.0  0.04248  0.90098  0.96816  1.0000
  C   C28       1.0  0.02032  0.94154  0.96839  1.0000
  H   H1        1.0  0.23982  0.98075  0.98624  1.0000
  H   H2        1.0  0.23085  0.95369  0.03749  1.0000
  H   H3        1.0  0.29256  0.01374  0.03609  1.0000
  H   H4        1.0  0.25466  0.01573  0.08058  1.0000
  H   H5        1.0  0.22897  0.08355  0.06145  1.0000
  H   H6        1.0  0.27546  0.08742  0.02589  1.0000
  H   H7        1.0  0.23029  0.05717  0.96266  1.0000
  H   H8        1.0  0.20506  0.10491  0.98614  1.0000
  H   H9        1.0  0.13473  0.09918  0.98882  1.0000
  H   H10       1.0  0.06554  0.07035  0.97839  1.0000
  H   H11       1.0  0.10361  0.97524  0.97615  1.0000
  H   H12       1.0  0.88131  0.06754  0.97966  1.0000
  H   H13       1.0  0.93807  0.07343  0.98872  1.0000
  H   H14       1.0  0.97269  0.04059  0.05902  1.0000
  H   H15       1.0  0.95943  0.02301  0.13860  1.0000
  H   H16       1.0  0.81858  0.01902  0.11546  1.0000
  H   H17       1.0  0.83037  0.03654  0.03571  1.0000
  H   H18       1.0  0.84011  0.93231  0.96069  1.0000
  H   H19       1.0  0.76103  0.92982  0.98616  1.0000
  H   H20       1.0  0.71364  0.99748  0.97516  1.0000
  H   H21       1.0  0.81595  0.06658  0.91498  1.0000
  H   H22       1.0  0.91228  0.90639  0.96039  1.0000
  H   H23       1.0  0.03294  0.82965  0.96434  1.0000
  H   H24       1.0  0.07845  0.89906  0.97151  1.0000
