data_image0
_chemical_formula_structural       OC7NCN2C2NC13H22
_chemical_formula_sum              "O1 C23 N4 H22"
_cell_length_a       30
_cell_length_b       30
_cell_length_c       30
_cell_angle_alpha    90
_cell_angle_beta     90
_cell_angle_gamma    90

_space_group_name_H-M_alt    "P 1"
_space_group_IT_number       1

loop_
  _space_group_symop_operation_xyz
  'x, y, z'

loop_
  _atom_site_type_symbol
  _atom_site_label
  _atom_site_symmetry_multiplicity
  _atom_site_fract_x
  _atom_site_fract_y
  _atom_site_fract_z
  _atom_site_occupancy
  O   O1        1.0  0.03083  0.06521  0.94501  1.0000
  C   C1        1.0  0.04427  0.02691  0.94847  1.0000
  C   C2        1.0  0.08562  0.01282  0.97193  1.0000
  C   C3        1.0  0.11301  0.04280  0.99036  1.0000
  C   C4        1.0  0.15437  0.03066  0.01296  1.0000
  C   C5        1.0  0.15787  0.03387  0.05920  1.0000
  C   C6        1.0  0.19753  0.02174  0.08008  1.0000
  C   C7        1.0  0.23245  0.00672  0.05383  1.0000
  N   N1        1.0  0.23035  0.00322  0.00899  1.0000
  C   C8        1.0  0.19150  0.01551  0.98960  1.0000
  N   N2        1.0  0.08805  0.96720  0.96871  1.0000
  N   N3        1.0  0.05756  0.94975  0.93692  1.0000
  C   C9        1.0  0.03683  0.90914  0.95490  1.0000
  C   C10       1.0  0.00388  0.91570  0.99406  1.0000
  N   N4        1.0  0.97841  0.95770  0.99383  1.0000
  C   C11       1.0  0.93443  0.95206  0.01463  1.0000
  C   C12       1.0  0.91124  0.99591  0.02488  1.0000
  C   C13       1.0  0.93117  0.02332  0.05743  1.0000
  C   C14       1.0  0.91232  0.06388  0.06935  1.0000
  C   C15       1.0  0.87313  0.07784  0.04893  1.0000
  C   C16       1.0  0.85242  0.05168  0.01619  1.0000
  C   C17       1.0  0.81301  0.06694  0.99601  1.0000
  C   C18       1.0  0.79169  0.04203  0.96315  1.0000
  C   C19       1.0  0.80961  0.00150  0.94999  1.0000
  C   C20       1.0  0.84879  0.98584  0.96978  1.0000
  C   C21       1.0  0.87125  0.01016  0.00344  1.0000
  C   C22       1.0  0.97655  0.97750  0.94899  1.0000
  C   C23       1.0  0.02324  0.98537  0.92881  1.0000
  H   H1        1.0  0.10488  0.07812  0.98964  1.0000
  H   H2        1.0  0.12991  0.04554  0.07908  1.0000
  H   H3        1.0  0.20107  0.02390  0.11598  1.0000
  H   H4        1.0  0.26400  0.99685  0.06862  1.0000
  H   H5        1.0  0.19113  0.01274  0.95347  1.0000
  H   H6        1.0  0.11927  0.95384  0.97061  1.0000
  H   H7        1.0  0.01859  0.89343  0.92731  1.0000
  H   H8        1.0  0.06257  0.88497  0.96448  1.0000
  H   H9        1.0  0.02258  0.91455  0.02545  1.0000
  H   H10       1.0  0.98147  0.88677  0.99406  1.0000
  H   H11       1.0  0.93851  0.93501  0.04682  1.0000
  H   H12       1.0  0.91368  0.92963  0.99475  1.0000
  H   H13       1.0  0.96209  0.01284  0.07329  1.0000
  H   H14       1.0  0.92825  0.08469  0.09434  1.0000
  H   H15       1.0  0.85892  0.10976  0.05864  1.0000
  H   H16       1.0  0.79858  0.09875  0.00577  1.0000
  H   H17       1.0  0.76128  0.05439  0.94786  1.0000
  H   H18       1.0  0.79327  0.98195  0.92424  1.0000
  H   H19       1.0  0.86149  0.95410  0.95796  1.0000
  H   H20       1.0  0.95766  0.95538  0.92676  1.0000
  H   H21       1.0  0.95884  0.00944  0.94988  1.0000
  H   H22       1.0  0.02057  0.99034  0.89271  1.0000
