data_image0
_chemical_formula_structural       OC7ClC2ONC7H10
_chemical_formula_sum              "O2 C16 Cl1 N1 H10"
_cell_length_a       30
_cell_length_b       30
_cell_length_c       30
_cell_angle_alpha    90
_cell_angle_beta     90
_cell_angle_gamma    90

_space_group_name_H-M_alt    "P 1"
_space_group_IT_number       1

loop_
  _space_group_symop_operation_xyz
  'x, y, z'

loop_
  _atom_site_type_symbol
  _atom_site_label
  _atom_site_symmetry_multiplicity
  _atom_site_fract_x
  _atom_site_fract_y
  _atom_site_fract_z
  _atom_site_occupancy
  O   O1        1.0  0.04531  0.91879  0.01480  1.0000
  C   C1        1.0  0.02472  0.95294  0.00701  1.0000
  C   C2        1.0  0.97662  0.95593  0.01300  1.0000
  C   C3        1.0  0.95675  0.98806  0.98944  1.0000
  C   C4        1.0  0.90801  0.99465  0.99037  1.0000
  C   C5        1.0  0.89059  0.03809  0.99094  1.0000
  C   C6        1.0  0.84455  0.04538  0.99157  1.0000
  C   C7        1.0  0.81550  0.00920  0.99140  1.0000
  Cl  Cl1       1.0  0.75886  0.01806  0.99216  1.0000
  C   C8        1.0  0.83208  0.96585  0.99049  1.0000
  C   C9        1.0  0.87814  0.95861  0.98988  1.0000
  O   O2        1.0  0.97884  0.01567  0.95978  1.0000
  N   N1        1.0  0.02374  0.02531  0.96987  1.0000
  C   C10       1.0  0.04671  0.99548  0.99148  1.0000
  C   C11       1.0  0.09452  0.00442  0.00185  1.0000
  C   C12       1.0  0.11697  0.98286  0.03662  1.0000
  C   C13       1.0  0.16166  0.99275  0.04544  1.0000
  C   C14       1.0  0.18413  0.02432  0.01984  1.0000
  C   C15       1.0  0.16201  0.04621  0.98539  1.0000
  C   C16       1.0  0.11738  0.03640  0.97647  1.0000
  H   H1        1.0  0.96020  0.93217  0.03444  1.0000
  H   H2        1.0  0.91286  0.06677  0.99104  1.0000
  H   H3        1.0  0.83175  0.07926  0.99211  1.0000
  H   H4        1.0  0.80944  0.93757  0.99004  1.0000
  H   H5        1.0  0.89025  0.92445  0.98849  1.0000
  H   H6        1.0  0.10052  0.95832  0.05758  1.0000
  H   H7        1.0  0.17892  0.97573  0.07240  1.0000
  H   H8        1.0  0.21889  0.03191  0.02678  1.0000
  H   H9        1.0  0.17942  0.07094  0.96543  1.0000
  H   H10       1.0  0.10066  0.05389  0.94943  1.0000
