data_image0
_chemical_formula_structural       OCNCOC2N2C3OC8SH13
_chemical_formula_sum              "O3 C15 N3 S1 H13"
_cell_length_a       30
_cell_length_b       30
_cell_length_c       30
_cell_angle_alpha    90
_cell_angle_beta     90
_cell_angle_gamma    90

_space_group_name_H-M_alt    "P 1"
_space_group_IT_number       1

loop_
  _space_group_symop_operation_xyz
  'x, y, z'

loop_
  _atom_site_type_symbol
  _atom_site_label
  _atom_site_symmetry_multiplicity
  _atom_site_fract_x
  _atom_site_fract_y
  _atom_site_fract_z
  _atom_site_occupancy
  O   O1        1.0  0.93306  0.87375  0.11283  1.0000
  C   C1        1.0  0.94269  0.90647  0.09030  1.0000
  N   N1        1.0  0.91383  0.94087  0.08380  1.0000
  C   C2        1.0  0.92456  0.98006  0.06330  1.0000
  O   O2        1.0  0.89987  0.01259  0.06482  1.0000
  C   C3        1.0  0.96813  0.98106  0.04034  1.0000
  C   C4        1.0  0.99646  0.94665  0.04588  1.0000
  N   N2        1.0  0.98349  0.91083  0.07070  1.0000
  N   N3        1.0  0.03827  0.94837  0.02694  1.0000
  C   C5        1.0  0.05564  0.98616  0.00692  1.0000
  C   C6        1.0  0.02938  0.02208  0.00019  1.0000
  C   C7        1.0  0.04880  0.06426  0.98266  1.0000
  O   O3        1.0  0.02642  0.09858  0.98150  1.0000
  C   C8        1.0  0.09751  0.06482  0.96956  1.0000
  C   C9        1.0  0.11411  0.01873  0.95672  1.0000
  C   C10       1.0  0.10399  0.98489  0.99325  1.0000
  C   C11       1.0  0.97983  0.02153  0.01202  1.0000
  C   C12       1.0  0.94997  0.02585  0.97094  1.0000
  C   C13       1.0  0.92057  0.05992  0.96099  1.0000
  C   C14       1.0  0.89803  0.05309  0.91978  1.0000
  C   C15       1.0  0.91087  0.01402  0.89945  1.0000
  S   S1        1.0  0.94988  0.98583  0.92990  1.0000
  H   H1        1.0  0.88444  0.93951  0.10004  1.0000
  H   H2        1.0  0.00451  0.88493  0.07530  1.0000
  H   H3        1.0  0.05954  0.92308  0.03400  1.0000
  H   H4        1.0  0.10162  0.08742  0.94118  1.0000
  H   H5        1.0  0.11663  0.07801  0.99774  1.0000
  H   H6        1.0  0.09796  0.00819  0.92561  1.0000
  H   H7        1.0  0.15004  0.01972  0.95027  1.0000
  H   H8        1.0  0.11265  0.95160  0.98086  1.0000
  H   H9        1.0  0.12485  0.99129  0.02258  1.0000
  H   H10       1.0  0.97402  0.05088  0.03326  1.0000
  H   H11       1.0  0.91556  0.08855  0.98247  1.0000
  H   H12       1.0  0.87364  0.07575  0.90581  1.0000
  H   H13       1.0  0.89920  0.00064  0.86808  1.0000
