data_image0
_chemical_formula_structural       OCNC7NFCOC11H17
_chemical_formula_sum              "O2 C20 N2 F1 H17"
_cell_length_a       30
_cell_length_b       30
_cell_length_c       30
_cell_angle_alpha    90
_cell_angle_beta     90
_cell_angle_gamma    90

_space_group_name_H-M_alt    "P 1"
_space_group_IT_number       1

loop_
  _space_group_symop_operation_xyz
  'x, y, z'

loop_
  _atom_site_type_symbol
  _atom_site_label
  _atom_site_symmetry_multiplicity
  _atom_site_fract_x
  _atom_site_fract_y
  _atom_site_fract_z
  _atom_site_occupancy
  O   O1        1.0  0.08404  0.88728  0.93492  1.0000
  C   C1        1.0  0.06121  0.92075  0.94055  1.0000
  N   N1        1.0  0.07122  0.94877  0.97484  1.0000
  C   C2        1.0  0.04264  0.98209  0.99438  1.0000
  C   C3        1.0  0.06923  0.01409  0.02346  1.0000
  C   C4        1.0  0.09419  0.99935  0.06030  1.0000
  C   C5        1.0  0.11833  0.02944  0.08635  1.0000
  C   C6        1.0  0.11793  0.07469  0.07605  1.0000
  C   C7        1.0  0.09336  0.08996  0.03976  1.0000
  C   C8        1.0  0.06917  0.05994  0.01366  1.0000
  N   N2        1.0  0.00666  0.96077  0.01881  1.0000
  F   F1        1.0  0.01785  0.93930  0.05821  1.0000
  C   C9        1.0  0.96807  0.94605  0.99868  1.0000
  O   O2        1.0  0.94237  0.91853  0.01477  1.0000
  C   C10       1.0  0.95878  0.96567  0.95370  1.0000
  C   C11       1.0  0.93359  0.00309  0.95349  1.0000
  C   C12       1.0  0.91466  0.02651  0.99208  1.0000
  C   C13       1.0  0.92877  0.07002  0.00136  1.0000
  C   C14       1.0  0.91123  0.09316  0.03774  1.0000
  C   C15       1.0  0.87930  0.07308  0.06486  1.0000
  C   C16       1.0  0.86479  0.02994  0.05556  1.0000
  C   C17       1.0  0.88228  0.00677  0.01918  1.0000
  C   C18       1.0  0.97810  0.94700  0.91248  1.0000
  C   C19       1.0  0.98657  0.89814  0.90751  1.0000
  C   C20       1.0  0.02547  0.93079  0.90779  1.0000
  H   H1        1.0  0.09477  0.93566  0.99504  1.0000
  H   H2        1.0  0.02917  0.00156  0.96669  1.0000
  H   H3        1.0  0.09478  0.96423  0.06937  1.0000
  H   H4        1.0  0.13733  0.01752  0.11482  1.0000
  H   H5        1.0  0.13670  0.09807  0.09641  1.0000
  H   H6        1.0  0.09302  0.12531  0.03180  1.0000
  H   H7        1.0  0.05027  0.07281  0.98552  1.0000
  H   H8        1.0  0.92657  0.01954  0.92191  1.0000
  H   H9        1.0  0.95356  0.08628  0.98053  1.0000
  H   H10       1.0  0.92247  0.12683  0.04498  1.0000
  H   H11       1.0  0.86571  0.09100  0.09326  1.0000
  H   H12       1.0  0.83994  0.01416  0.07669  1.0000
  H   H13       1.0  0.87058  0.97307  0.01250  1.0000
  H   H14       1.0  0.96454  0.96273  0.88263  1.0000
  H   H15       1.0  0.97842  0.88225  0.87607  1.0000
  H   H16       1.0  0.98219  0.87625  0.93600  1.0000
  H   H17       1.0  0.04020  0.93756  0.87528  1.0000
