data_image0
_chemical_formula_structural       OCOC6NC3SC6H13
_chemical_formula_sum              "O2 C16 N1 S1 H13"
_cell_length_a       30
_cell_length_b       30
_cell_length_c       30
_cell_angle_alpha    90
_cell_angle_beta     90
_cell_angle_gamma    90

_space_group_name_H-M_alt    "P 1"
_space_group_IT_number       1

loop_
  _space_group_symop_operation_xyz
  'x, y, z'

loop_
  _atom_site_type_symbol
  _atom_site_label
  _atom_site_symmetry_multiplicity
  _atom_site_fract_x
  _atom_site_fract_y
  _atom_site_fract_z
  _atom_site_occupancy
  O   O1        1.0  0.02786  0.08435  0.06668  1.0000
  C   C1        1.0  0.05332  0.06134  0.04464  1.0000
  O   O2        1.0  0.09900  0.05794  0.05367  1.0000
  C   C2        1.0  0.11346  0.02874  0.02095  1.0000
  C   C3        1.0  0.15676  0.01435  0.01552  1.0000
  C   C4        1.0  0.16526  0.98476  0.98055  1.0000
  C   C5        1.0  0.13062  0.97053  0.95220  1.0000
  C   C6        1.0  0.08693  0.98562  0.95838  1.0000
  C   C7        1.0  0.07954  0.01470  0.99317  1.0000
  N   N1        1.0  0.04158  0.03540  0.00841  1.0000
  C   C8        1.0  0.99710  0.03106  0.99058  1.0000
  C   C9        1.0  0.96648  0.00175  0.01947  1.0000
  C   C10       1.0  0.98433  0.95363  0.02264  1.0000
  S   S1        1.0  0.93696  0.91753  0.03316  1.0000
  C   C11       1.0  0.89991  0.95600  0.00832  1.0000
  C   C12       1.0  0.85618  0.94736  0.99602  1.0000
  C   C13       1.0  0.83107  0.98157  0.97707  1.0000
  C   C14       1.0  0.84976  0.02388  0.97107  1.0000
  C   C15       1.0  0.89378  0.03236  0.98380  1.0000
  C   C16       1.0  0.91921  0.99801  0.00201  1.0000
  H   H1        1.0  0.18315  0.02555  0.03751  1.0000
  H   H2        1.0  0.19899  0.97258  0.97510  1.0000
  H   H3        1.0  0.13806  0.94752  0.92516  1.0000
  H   H4        1.0  0.06051  0.97460  0.93638  1.0000
  H   H5        1.0  0.98339  0.06492  0.98897  1.0000
  H   H6        1.0  0.99852  0.01881  0.95619  1.0000
  H   H7        1.0  0.96449  0.01575  0.05326  1.0000
  H   H8        1.0  0.00942  0.95016  0.04889  1.0000
  H   H9        1.0  0.99917  0.94290  0.99106  1.0000
  H   H10       1.0  0.84164  0.91461  0.00111  1.0000
  H   H11       1.0  0.79672  0.97545  0.96727  1.0000
  H   H12       1.0  0.82969  0.05050  0.95680  1.0000
  H   H13       1.0  0.90715  0.06577  0.97982  1.0000
