data_image0
_chemical_formula_structural       OC5ONC3NC2NC6FC4OH26
_chemical_formula_sum              "O3 C20 N3 F1 H26"
_cell_length_a       30
_cell_length_b       30
_cell_length_c       30
_cell_angle_alpha    90
_cell_angle_beta     90
_cell_angle_gamma    90

_space_group_name_H-M_alt    "P 1"
_space_group_IT_number       1

loop_
  _space_group_symop_operation_xyz
  'x, y, z'

loop_
  _atom_site_type_symbol
  _atom_site_label
  _atom_site_symmetry_multiplicity
  _atom_site_fract_x
  _atom_site_fract_y
  _atom_site_fract_z
  _atom_site_occupancy
  O   O1        1.0  0.29604  0.98603  0.00007  1.0000
  C   C1        1.0  0.25612  0.99244  0.99577  1.0000
  C   C2        1.0  0.23300  0.00157  0.95255  1.0000
  C   C3        1.0  0.18479  0.99408  0.96446  1.0000
  C   C4        1.0  0.18327  0.00542  0.01364  1.0000
  C   C5        1.0  0.14648  0.97850  0.03725  1.0000
  O   O2        1.0  0.15543  0.94373  0.05721  1.0000
  N   N1        1.0  0.10273  0.99402  0.03348  1.0000
  C   C6        1.0  0.09167  0.03945  0.01965  1.0000
  C   C7        1.0  0.04167  0.04920  0.02010  1.0000
  C   C8        1.0  0.01606  0.00950  0.00046  1.0000
  N   N2        1.0  0.96882  0.01983  0.99217  1.0000
  C   C9        1.0  0.94468  0.98496  0.96686  1.0000
  C   C10       1.0  0.90868  0.95964  0.99363  1.0000
  N   N3        1.0  0.87534  0.99004  0.01344  1.0000
  C   C11       1.0  0.83219  0.99113  0.99499  1.0000
  C   C12       1.0  0.79654  0.00340  0.02288  1.0000
  C   C13       1.0  0.75267  0.00545  0.00714  1.0000
  C   C14       1.0  0.74336  0.99537  0.96282  1.0000
  C   C15       1.0  0.77797  0.98332  0.93438  1.0000
  C   C16       1.0  0.82164  0.98131  0.95036  1.0000
  F   F1        1.0  0.85370  0.97074  0.92097  1.0000
  C   C17       1.0  0.89227  0.03541  0.02340  1.0000
  C   C18       1.0  0.94324  0.03519  0.03132  1.0000
  C   C19       1.0  0.02479  0.96680  0.02784  1.0000
  C   C20       1.0  0.06744  0.96902  0.05570  1.0000
  O   O3        1.0  0.22659  0.99440  0.03015  1.0000
  H   H1        1.0  0.24413  0.97865  0.92655  1.0000
  H   H2        1.0  0.23926  0.03615  0.94282  1.0000
  H   H3        1.0  0.16207  0.01418  0.94426  1.0000
  H   H4        1.0  0.17606  0.95899  0.95889  1.0000
  H   H5        1.0  0.17870  0.04113  0.01947  1.0000
  H   H6        1.0  0.10893  0.06279  0.04182  1.0000
  H   H7        1.0  0.10480  0.04448  0.98598  1.0000
  H   H8        1.0  0.03526  0.07977  0.00111  1.0000
  H   H9        1.0  0.03092  0.05555  0.05449  1.0000
  H   H10       1.0  0.03090  0.00391  0.96738  1.0000
  H   H11       1.0  0.92855  0.00180  0.93870  1.0000
  H   H12       1.0  0.96774  0.96085  0.95194  1.0000
  H   H13       1.0  0.92486  0.94193  0.02123  1.0000
  H   H14       1.0  0.89353  0.93331  0.97335  1.0000
  H   H15       1.0  0.80292  0.01078  0.05780  1.0000
  H   H16       1.0  0.72587  0.01477  0.02968  1.0000
  H   H17       1.0  0.70933  0.99693  0.95051  1.0000
  H   H18       1.0  0.77144  0.97560  0.89964  1.0000
  H   H19       1.0  0.87592  0.04828  0.05345  1.0000
  H   H20       1.0  0.88474  0.05836  0.99585  1.0000
  H   H21       1.0  0.95009  0.01431  0.06051  1.0000
  H   H22       1.0  0.95347  0.06924  0.03969  1.0000
  H   H23       1.0  0.02707  0.93857  0.00466  1.0000
  H   H24       1.0  0.99721  0.95889  0.05039  1.0000
  H   H25       1.0  0.07817  0.93507  0.06377  1.0000
  H   H26       1.0  0.06091  0.98577  0.08756  1.0000
