data_image0
_chemical_formula_structural       OCNC19H25
_chemical_formula_sum              "O1 C20 N1 H25"
_cell_length_a       30
_cell_length_b       30
_cell_length_c       30
_cell_angle_alpha    90
_cell_angle_beta     90
_cell_angle_gamma    90

_space_group_name_H-M_alt    "P 1"
_space_group_IT_number       1

loop_
  _space_group_symop_operation_xyz
  'x, y, z'

loop_
  _atom_site_type_symbol
  _atom_site_label
  _atom_site_symmetry_multiplicity
  _atom_site_fract_x
  _atom_site_fract_y
  _atom_site_fract_z
  _atom_site_occupancy
  O   O1        1.0  0.06937  0.07219  0.08833  1.0000
  C   C1        1.0  0.05482  0.06147  0.05169  1.0000
  N   N1        1.0  0.00997  0.06760  0.04083  1.0000
  C   C2        1.0  0.98799  0.03785  0.00967  1.0000
  C   C3        1.0  0.98490  0.99136  0.02960  1.0000
  C   C4        1.0  0.98330  0.96044  0.98959  1.0000
  C   C5        1.0  0.99675  0.91256  0.00170  1.0000
  C   C6        1.0  0.04816  0.90732  0.00584  1.0000
  C   C7        1.0  0.06938  0.92761  0.04680  1.0000
  C   C8        1.0  0.09208  0.96619  0.05132  1.0000
  C   C9        1.0  0.10194  0.99943  0.01652  1.0000
  C   C10       1.0  0.13053  0.98680  0.98167  1.0000
  C   C11       1.0  0.14205  0.01681  0.94794  1.0000
  C   C12       1.0  0.12549  0.06017  0.94859  1.0000
  C   C13       1.0  0.09735  0.07363  0.98301  1.0000
  C   C14       1.0  0.08545  0.04356  0.01689  1.0000
  C   C15       1.0  0.93825  0.96700  0.96568  1.0000
  C   C16       1.0  0.91283  0.01000  0.98017  1.0000
  C   C17       1.0  0.87530  0.00082  0.01556  1.0000
  C   C18       1.0  0.84411  0.03090  0.98813  1.0000
  C   C19       1.0  0.87377  0.02128  0.94748  1.0000
  C   C20       1.0  0.94205  0.05147  0.99212  1.0000
  H   H1        1.0  0.99216  0.07766  0.06772  1.0000
  H   H2        1.0  0.00968  0.03746  0.98027  1.0000
  H   H3        1.0  0.95585  0.98736  0.05141  1.0000
  H   H4        1.0  0.01243  0.98469  0.05186  1.0000
  H   H5        1.0  0.00854  0.97102  0.96518  1.0000
  H   H6        1.0  0.98020  0.90177  0.03245  1.0000
  H   H7        1.0  0.98559  0.89011  0.97507  1.0000
  H   H8        1.0  0.06403  0.91981  0.97542  1.0000
  H   H9        1.0  0.05571  0.87152  0.00664  1.0000
  H   H10       1.0  0.06457  0.90807  0.07708  1.0000
  H   H11       1.0  0.10363  0.97585  0.08441  1.0000
  H   H12       1.0  0.14436  0.95326  0.98073  1.0000
  H   H13       1.0  0.16427  0.00631  0.92130  1.0000
  H   H14       1.0  0.13469  0.08355  0.92247  1.0000
  H   H15       1.0  0.08465  0.10759  0.98364  1.0000
  H   H16       1.0  0.91705  0.93761  0.97053  1.0000
  H   H17       1.0  0.94479  0.96871  0.92970  1.0000
  H   H18       1.0  0.86384  0.96614  0.01718  1.0000
  H   H19       1.0  0.88155  0.01228  0.04960  1.0000
  H   H20       1.0  0.80957  0.01962  0.98551  1.0000
  H   H21       1.0  0.84429  0.06589  0.99860  1.0000
  H   H22       1.0  0.87902  0.04948  0.92498  1.0000
  H   H23       1.0  0.86198  0.99291  0.92765  1.0000
  H   H24       1.0  0.94676  0.07228  0.96240  1.0000
  H   H25       1.0  0.92495  0.07260  0.01657  1.0000
