data_image0
_chemical_formula_structural       OC3SCNCN2C8ClCOCOH12
_chemical_formula_sum              "O3 C15 S1 N3 Cl1 H12"
_cell_length_a       30
_cell_length_b       30
_cell_length_c       30
_cell_angle_alpha    90
_cell_angle_beta     90
_cell_angle_gamma    90

_space_group_name_H-M_alt    "P 1"
_space_group_IT_number       1

loop_
  _space_group_symop_operation_xyz
  'x, y, z'

loop_
  _atom_site_type_symbol
  _atom_site_label
  _atom_site_symmetry_multiplicity
  _atom_site_fract_x
  _atom_site_fract_y
  _atom_site_fract_z
  _atom_site_occupancy
  O   O1        1.0  0.94149  0.98595  0.06316  1.0000
  C   C1        1.0  0.92347  0.96482  0.03328  1.0000
  C   C2        1.0  0.87536  0.97057  0.02041  1.0000
  C   C3        1.0  0.86635  0.97187  0.97020  1.0000
  S   S1        1.0  0.90703  0.99897  0.93378  1.0000
  C   C4        1.0  0.92254  0.04509  0.96470  1.0000
  N   N1        1.0  0.89444  0.07719  0.97418  1.0000
  C   C5        1.0  0.92050  0.10739  0.99514  1.0000
  N   N2        1.0  0.96291  0.09586  0.00054  1.0000
  N   N3        1.0  0.96513  0.05349  0.98258  1.0000
  C   C6        1.0  0.00362  0.02626  0.98521  1.0000
  C   C7        1.0  0.04239  0.04186  0.00224  1.0000
  C   C8        1.0  0.08449  0.01711  0.00661  1.0000
  C   C9        1.0  0.09304  0.99518  0.04702  1.0000
  C   C10       1.0  0.13220  0.97068  0.05276  1.0000
  C   C11       1.0  0.16327  0.96804  0.01834  1.0000
  C   C12       1.0  0.15538  0.99014  0.97818  1.0000
  C   C13       1.0  0.11626  0.01474  0.97230  1.0000
  Cl  Cl1       1.0  0.10902  0.04234  0.92224  1.0000
  C   C14       1.0  0.00430  0.97887  0.97003  1.0000
  O   O2        1.0  0.01446  0.96999  0.93129  1.0000
  C   C15       1.0  0.99203  0.94246  0.00371  1.0000
  O   O3        1.0  0.94494  0.93598  0.00591  1.0000
  H   H1        1.0  0.85587  0.94396  0.03607  1.0000
  H   H2        1.0  0.86399  0.00209  0.03507  1.0000
  H   H3        1.0  0.83387  0.98753  0.96438  1.0000
  H   H4        1.0  0.86345  0.93755  0.95801  1.0000
  H   H5        1.0  0.90825  0.13922  0.00699  1.0000
  H   H6        1.0  0.04466  0.07620  0.01395  1.0000
  H   H7        1.0  0.06934  0.99715  0.07444  1.0000
  H   H8        1.0  0.13855  0.95378  0.08421  1.0000
  H   H9        1.0  0.19379  0.94900  0.02282  1.0000
  H   H10       1.0  0.17992  0.98820  0.95158  1.0000
  H   H11       1.0  0.00700  0.91119  0.99222  1.0000
  H   H12       1.0  0.00668  0.94926  0.03643  1.0000
