data_image0
_chemical_formula_structural       OCOC2NC2NCNC7NOH14
_chemical_formula_sum              "O3 C13 N4 H14"
_cell_length_a       30
_cell_length_b       30
_cell_length_c       30
_cell_angle_alpha    90
_cell_angle_beta     90
_cell_angle_gamma    90

_space_group_name_H-M_alt    "P 1"
_space_group_IT_number       1

loop_
  _space_group_symop_operation_xyz
  'x, y, z'

loop_
  _atom_site_type_symbol
  _atom_site_label
  _atom_site_symmetry_multiplicity
  _atom_site_fract_x
  _atom_site_fract_y
  _atom_site_fract_z
  _atom_site_occupancy
  O   O1        1.0  0.12543  0.93775  0.95735  1.0000
  C   C1        1.0  0.13740  0.97539  0.96717  1.0000
  O   O2        1.0  0.15651  0.00470  0.93793  1.0000
  C   C2        1.0  0.16748  0.04442  0.96207  1.0000
  C   C3        1.0  0.13897  0.04229  0.00346  1.0000
  N   N1        1.0  0.13247  0.99533  0.00824  1.0000
  C   C4        1.0  0.10499  0.97611  0.04331  1.0000
  C   C5        1.0  0.05455  0.98348  0.03736  1.0000
  N   N2        1.0  0.03891  0.96724  0.99457  1.0000
  C   C6        1.0  0.99518  0.96861  0.98541  1.0000
  N   N3        1.0  0.96308  0.98978  0.00600  1.0000
  C   C7        1.0  0.92600  0.97840  0.98129  1.0000
  C   C8        1.0  0.88153  0.99484  0.99227  1.0000
  C   C9        1.0  0.87529  0.02330  0.02886  1.0000
  C   C10       1.0  0.83286  0.03921  0.03965  1.0000
  C   C11       1.0  0.79618  0.02685  0.01398  1.0000
  C   C12       1.0  0.80185  0.99862  0.97753  1.0000
  C   C13       1.0  0.84428  0.98269  0.96672  1.0000
  N   N4        1.0  0.93477  0.95112  0.94687  1.0000
  O   O3        1.0  0.98073  0.94469  0.94956  1.0000
  H   H1        1.0  0.16035  0.07388  0.94182  1.0000
  H   H2        1.0  0.20315  0.04358  0.96981  1.0000
  H   H3        1.0  0.15496  0.05678  0.03281  1.0000
  H   H4        1.0  0.10659  0.05815  0.99775  1.0000
  H   H5        1.0  0.11605  0.99011  0.07516  1.0000
  H   H6        1.0  0.11168  0.94017  0.04404  1.0000
  H   H7        1.0  0.03713  0.96628  0.06452  1.0000
  H   H8        1.0  0.04719  0.01917  0.04029  1.0000
  H   H9        1.0  0.05791  0.94372  0.97892  1.0000
  H   H10       1.0  0.90357  0.03330  0.04927  1.0000
  H   H11       1.0  0.82850  0.06123  0.06809  1.0000
  H   H12       1.0  0.76317  0.03921  0.02236  1.0000
  H   H13       1.0  0.77328  0.98893  0.95745  1.0000
  H   H14       1.0  0.84795  0.96068  0.93811  1.0000
