data_image0
_chemical_formula_structural       OC4ONC2ONC10H16
_chemical_formula_sum              "O3 C16 N2 H16"
_cell_length_a       30
_cell_length_b       30
_cell_length_c       30
_cell_angle_alpha    90
_cell_angle_beta     90
_cell_angle_gamma    90

_space_group_name_H-M_alt    "P 1"
_space_group_IT_number       1

loop_
  _space_group_symop_operation_xyz
  'x, y, z'

loop_
  _atom_site_type_symbol
  _atom_site_label
  _atom_site_symmetry_multiplicity
  _atom_site_fract_x
  _atom_site_fract_y
  _atom_site_fract_z
  _atom_site_occupancy
  O   O1        1.0  0.11400  0.07227  0.04986  1.0000
  C   C1        1.0  0.12446  0.04306  0.02348  1.0000
  C   C2        1.0  0.16889  0.02017  0.02271  1.0000
  C   C3        1.0  0.16620  0.98850  0.98330  1.0000
  C   C4        1.0  0.11999  0.99477  0.96533  1.0000
  O   O2        1.0  0.10464  0.97472  0.93337  1.0000
  N   N1        1.0  0.09880  0.02647  0.98992  1.0000
  C   C5        1.0  0.05246  0.03840  0.98335  1.0000
  C   C6        1.0  0.02239  0.00553  0.00876  1.0000
  O   O3        1.0  0.03920  0.97955  0.03594  1.0000
  N   N2        1.0  0.97641  0.00808  0.99986  1.0000
  C   C7        1.0  0.95746  0.04372  0.97180  1.0000
  C   C8        1.0  0.91306  0.06014  0.98737  1.0000
  C   C9        1.0  0.87097  0.04543  0.96411  1.0000
  C   C10       1.0  0.88223  0.02755  0.00959  1.0000
  C   C11       1.0  0.90008  0.98116  0.01521  1.0000
  C   C12       1.0  0.87074  0.94601  0.02544  1.0000
  C   C13       1.0  0.88636  0.90298  0.03304  1.0000
  C   C14       1.0  0.93176  0.89444  0.03053  1.0000
  C   C15       1.0  0.96146  0.92882  0.02020  1.0000
  C   C16       1.0  0.94636  0.97241  0.01229  1.0000
  H   H1        1.0  0.17401  0.00211  0.05397  1.0000
  H   H2        1.0  0.19548  0.04472  0.01823  1.0000
  H   H3        1.0  0.19068  0.99707  0.95767  1.0000
  H   H4        1.0  0.17093  0.95388  0.99369  1.0000
  H   H5        1.0  0.04495  0.03675  0.94769  1.0000
  H   H6        1.0  0.04698  0.07203  0.99633  1.0000
  H   H7        1.0  0.95557  0.03064  0.93770  1.0000
  H   H8        1.0  0.97978  0.07247  0.97068  1.0000
  H   H9        1.0  0.91454  0.09352  0.00107  1.0000
  H   H10       1.0  0.87336  0.02302  0.93584  1.0000
  H   H11       1.0  0.84381  0.06915  0.96164  1.0000
  H   H12       1.0  0.86278  0.04054  0.03731  1.0000
  H   H13       1.0  0.83516  0.95259  0.02790  1.0000
  H   H14       1.0  0.86320  0.87631  0.04105  1.0000
  H   H15       1.0  0.94436  0.86097  0.03634  1.0000
  H   H16       1.0  0.99648  0.92006  0.01742  1.0000
