data_image0
_chemical_formula_structural       OCN2CSNC8H15
_chemical_formula_sum              "O1 C10 N3 S1 H15"
_cell_length_a       30
_cell_length_b       30
_cell_length_c       30
_cell_angle_alpha    90
_cell_angle_beta     90
_cell_angle_gamma    90

_space_group_name_H-M_alt    "P 1"
_space_group_IT_number       1

loop_
  _space_group_symop_operation_xyz
  'x, y, z'

loop_
  _atom_site_type_symbol
  _atom_site_label
  _atom_site_symmetry_multiplicity
  _atom_site_fract_x
  _atom_site_fract_y
  _atom_site_fract_z
  _atom_site_occupancy
  O   O1        1.0  0.95300  0.10141  0.03874  1.0000
  C   C1        1.0  0.97496  0.06978  0.02403  1.0000
  N   N1        1.0  0.01620  0.06015  0.04529  1.0000
  N   N2        1.0  0.05985  0.04433  0.02216  1.0000
  C   C2        1.0  0.07430  0.00037  0.02986  1.0000
  S   S1        1.0  0.10991  0.99033  0.07164  1.0000
  N   N3        1.0  0.06050  0.96611  1.00000  1.0000
  C   C3        1.0  0.05699  0.97288  0.95049  1.0000
  C   C4        1.0  0.00753  0.98264  0.93547  1.0000
  C   C5        1.0  0.98994  0.00690  0.97561  1.0000
  C   C6        1.0  0.98462  0.97381  0.01546  1.0000
  C   C7        1.0  0.93586  0.96206  0.01130  1.0000
  C   C8        1.0  0.91550  0.00884  0.00316  1.0000
  C   C9        1.0  0.95386  0.03883  0.98619  1.0000
  C   C10       1.0  0.02218  0.94029  0.01617  1.0000
  H   H1        1.0  0.02285  0.08280  0.06971  1.0000
  H   H2        1.0  0.08393  0.06518  0.03424  1.0000
  H   H3        1.0  0.06893  0.94248  0.93418  1.0000
  H   H4        1.0  0.07906  0.00044  0.94108  1.0000
  H   H5        1.0  0.98938  0.95172  0.92872  1.0000
  H   H6        1.0  0.00724  0.00282  0.90507  1.0000
  H   H7        1.0  0.01618  0.03134  0.97418  1.0000
  H   H8        1.0  0.98665  0.99005  0.04814  1.0000
  H   H9        1.0  0.92951  0.94005  0.98288  1.0000
  H   H10       1.0  0.92231  0.94638  0.04131  1.0000
  H   H11       1.0  0.88883  0.00640  0.97835  1.0000
  H   H12       1.0  0.90102  0.02209  0.03395  1.0000
  H   H13       1.0  0.94403  0.05991  0.95812  1.0000
  H   H14       1.0  0.01653  0.91148  0.99448  1.0000
  H   H15       1.0  0.02831  0.92813  0.05004  1.0000
