data_image0
_chemical_formula_structural       OC5NC3NCNC2SOC2NC7H24
_chemical_formula_sum              "O2 C20 N4 S1 H24"
_cell_length_a       30
_cell_length_b       30
_cell_length_c       30
_cell_angle_alpha    90
_cell_angle_beta     90
_cell_angle_gamma    90

_space_group_name_H-M_alt    "P 1"
_space_group_IT_number       1

loop_
  _space_group_symop_operation_xyz
  'x, y, z'

loop_
  _atom_site_type_symbol
  _atom_site_label
  _atom_site_symmetry_multiplicity
  _atom_site_fract_x
  _atom_site_fract_y
  _atom_site_fract_z
  _atom_site_occupancy
  O   O1        1.0  0.03866  0.96136  0.04152  1.0000
  C   C1        1.0  0.02088  0.97720  0.00798  1.0000
  C   C2        1.0  0.97119  0.97498  0.00617  1.0000
  C   C3        1.0  0.94546  0.99959  0.97903  1.0000
  C   C4        1.0  0.96554  0.03625  0.95133  1.0000
  C   C5        1.0  0.99002  0.01457  0.91214  1.0000
  N   N1        1.0  0.02888  0.98795  0.92484  1.0000
  C   C6        1.0  0.04871  0.99735  0.96903  1.0000
  C   C7        1.0  0.09596  0.97698  0.96833  1.0000
  C   C8        1.0  0.12641  0.99680  0.00431  1.0000
  N   N2        1.0  0.17092  0.97798  0.99980  1.0000
  C   C9        1.0  0.20445  0.99658  0.02355  1.0000
  N   N3        1.0  0.20408  0.03686  0.04074  1.0000
  C   C10       1.0  0.24358  0.04515  0.06280  1.0000
  C   C11       1.0  0.27405  0.01086  0.06239  1.0000
  S   S1        1.0  0.25261  0.96667  0.03335  1.0000
  O   O2        1.0  0.96262  0.98566  0.88572  1.0000
  C   C12       1.0  0.91578  0.99492  0.88534  1.0000
  C   C13       1.0  0.89033  0.97291  0.92444  1.0000
  N   N4        1.0  0.90033  0.99165  0.96958  1.0000
  C   C14       1.0  0.86933  0.97485  0.00413  1.0000
  C   C15       1.0  0.86550  0.00684  0.04294  1.0000
  C   C16       1.0  0.87491  0.99275  0.08650  1.0000
  C   C17       1.0  0.87085  0.02226  0.12227  1.0000
  C   C18       1.0  0.85721  0.06606  0.11491  1.0000
  C   C19       1.0  0.84764  0.08045  0.07181  1.0000
  C   C20       1.0  0.85170  0.05101  0.03602  1.0000
  H   H1        1.0  0.95735  0.94856  0.02653  1.0000
  H   H2        1.0  0.98703  0.05787  0.97144  1.0000
  H   H3        1.0  0.93940  0.05901  0.93966  1.0000
  H   H4        1.0  0.00161  0.04122  0.89002  1.0000
  H   H5        1.0  0.01968  0.95533  0.92252  1.0000
  H   H6        1.0  0.05227  0.03331  0.97419  1.0000
  H   H7        1.0  0.09435  0.94059  0.97205  1.0000
  H   H8        1.0  0.11165  0.98333  0.93582  1.0000
  H   H9        1.0  0.12750  0.03311  0.00005  1.0000
  H   H10       1.0  0.11383  0.98986  0.03782  1.0000
  H   H11       1.0  0.17183  0.94427  0.99744  1.0000
  H   H12       1.0  0.24844  0.07714  0.07879  1.0000
  H   H13       1.0  0.30682  0.00970  0.07725  1.0000
  H   H14       1.0  0.90309  0.97996  0.85451  1.0000
  H   H15       1.0  0.90930  0.03073  0.88254  1.0000
  H   H16       1.0  0.85457  0.97659  0.91786  1.0000
  H   H17       1.0  0.89812  0.93718  0.92505  1.0000
  H   H18       1.0  0.87982  0.94164  0.01526  1.0000
  H   H19       1.0  0.83573  0.97085  0.99020  1.0000
  H   H20       1.0  0.88574  0.95876  0.09291  1.0000
  H   H21       1.0  0.87846  0.01109  0.15588  1.0000
  H   H22       1.0  0.85417  0.08900  0.14278  1.0000
  H   H23       1.0  0.83715  0.11463  0.06601  1.0000
  H   H24       1.0  0.84449  0.06261  0.00243  1.0000
