data_image0
_chemical_formula_structural       OC7NOC7ONC12H22
_chemical_formula_sum              "O3 C26 N2 H22"
_cell_length_a       30
_cell_length_b       30
_cell_length_c       30
_cell_angle_alpha    90
_cell_angle_beta     90
_cell_angle_gamma    90

_space_group_name_H-M_alt    "P 1"
_space_group_IT_number       1

loop_
  _space_group_symop_operation_xyz
  'x, y, z'

loop_
  _atom_site_type_symbol
  _atom_site_label
  _atom_site_symmetry_multiplicity
  _atom_site_fract_x
  _atom_site_fract_y
  _atom_site_fract_z
  _atom_site_occupancy
  O   O1        1.0  0.02733  0.98547  0.94033  1.0000
  C   C1        1.0  0.99932  0.98415  0.97012  1.0000
  C   C2        1.0  0.00085  0.01297  0.01048  1.0000
  C   C3        1.0  0.03930  0.02729  0.02891  1.0000
  C   C4        1.0  0.08394  0.01815  0.01389  1.0000
  C   C5        1.0  0.10375  0.03679  0.97822  1.0000
  C   C6        1.0  0.15002  0.01894  0.96942  1.0000
  C   C7        1.0  0.18617  0.05431  0.97021  1.0000
  N   N1        1.0  0.17814  0.09679  0.97413  1.0000
  O   O2        1.0  0.21863  0.12006  0.97352  1.0000
  C   C8        1.0  0.15475  0.98606  0.00709  1.0000
  C   C9        1.0  0.18980  0.95746  0.01691  1.0000
  C   C10       1.0  0.18566  0.92942  0.05383  1.0000
  C   C11       1.0  0.14699  0.93018  0.08018  1.0000
  C   C12       1.0  0.11170  0.95882  0.06981  1.0000
  C   C13       1.0  0.11586  0.98649  0.03303  1.0000
  C   C14       1.0  0.95816  0.02451  0.03396  1.0000
  O   O3        1.0  0.95985  0.04630  0.06874  1.0000
  N   N2        1.0  0.91827  0.01012  0.01339  1.0000
  C   C15       1.0  0.87774  0.03254  0.02624  1.0000
  C   C16       1.0  0.84869  0.05046  0.99420  1.0000
  C   C17       1.0  0.80946  0.07227  0.00687  1.0000
  C   C18       1.0  0.79882  0.07677  0.05181  1.0000
  C   C19       1.0  0.82742  0.05955  0.08407  1.0000
  C   C20       1.0  0.86657  0.03763  0.07135  1.0000
  C   C21       1.0  0.91842  0.98333  0.97155  1.0000
  C   C22       1.0  0.87736  0.95238  0.96588  1.0000
  C   C23       1.0  0.87766  0.92879  0.92049  1.0000
  C   C24       1.0  0.92269  0.91169  0.90734  1.0000
  C   C25       1.0  0.95999  0.92207  0.92975  1.0000
  C   C26       1.0  0.95985  0.95288  0.96948  1.0000
  H   H1        1.0  0.03838  0.04687  0.05951  1.0000
  H   H2        1.0  0.08830  0.06115  0.95659  1.0000
  H   H3        1.0  0.15100  0.00130  0.93743  1.0000
  H   H4        1.0  0.22076  0.04204  0.96653  1.0000
  H   H5        1.0  0.20920  0.15076  0.97981  1.0000
  H   H6        1.0  0.21950  0.95637  0.99637  1.0000
  H   H7        1.0  0.21256  0.90650  0.06221  1.0000
  H   H8        1.0  0.14430  0.90793  0.10871  1.0000
  H   H9        1.0  0.08179  0.95907  0.09015  1.0000
  H   H10       1.0  0.85637  0.04872  0.95887  1.0000
  H   H11       1.0  0.78743  0.08605  0.98157  1.0000
  H   H12       1.0  0.76847  0.09393  0.06171  1.0000
  H   H13       1.0  0.81950  0.06325  0.11928  1.0000
  H   H14       1.0  0.88798  0.02423  0.09741  1.0000
  H   H15       1.0  0.91968  0.00748  0.94398  1.0000
  H   H16       1.0  0.87736  0.92735  0.99270  1.0000
  H   H17       1.0  0.84557  0.96989  0.96883  1.0000
  H   H18       1.0  0.85404  0.90093  0.92147  1.0000
  H   H19       1.0  0.86604  0.95186  0.89460  1.0000
  H   H20       1.0  0.92457  0.88978  0.87848  1.0000
  H   H21       1.0  0.99176  0.90805  0.91917  1.0000
  H   H22       1.0  0.96229  0.93186  0.99944  1.0000
