data_image0
_chemical_formula_structural       OCNC5NCOCNCOC6OC2H25
_chemical_formula_sum              "O4 C17 N3 H25"
_cell_length_a       30
_cell_length_b       30
_cell_length_c       30
_cell_angle_alpha    90
_cell_angle_beta     90
_cell_angle_gamma    90

_space_group_name_H-M_alt    "P 1"
_space_group_IT_number       1

loop_
  _space_group_symop_operation_xyz
  'x, y, z'

loop_
  _atom_site_type_symbol
  _atom_site_label
  _atom_site_symmetry_multiplicity
  _atom_site_fract_x
  _atom_site_fract_y
  _atom_site_fract_z
  _atom_site_occupancy
  O   O1        1.0  0.95951  0.02783  0.07196  1.0000
  C   C1        1.0  0.92593  0.00909  0.05790  1.0000
  N   N1        1.0  0.88532  0.02997  0.05938  1.0000
  C   C2        1.0  0.84703  0.01345  0.03570  1.0000
  C   C3        1.0  0.84065  0.96330  0.04152  1.0000
  C   C4        1.0  0.88340  0.93855  0.05452  1.0000
  C   C5        1.0  0.92618  0.96212  0.03902  1.0000
  C   C6        1.0  0.93152  0.95979  0.98801  1.0000
  N   N2        1.0  0.97050  0.98222  0.96909  1.0000
  C   C7        1.0  0.01275  0.96873  0.98250  1.0000
  O   O2        1.0  0.01872  0.93604  0.00682  1.0000
  C   C8        1.0  0.05327  0.99433  0.96352  1.0000
  N   N3        1.0  0.08938  0.99296  0.99587  1.0000
  C   C9        1.0  0.13273  0.00079  0.98420  1.0000
  O   O3        1.0  0.14505  0.01437  0.94780  1.0000
  C   C10       1.0  0.16530  0.99198  0.02034  1.0000
  C   C11       1.0  0.16716  0.94725  0.04348  1.0000
  C   C12       1.0  0.20374  0.96049  0.01208  1.0000
  C   C13       1.0  0.04128  0.04176  0.94840  1.0000
  C   C14       1.0  0.02760  0.07205  0.98768  1.0000
  C   C15       1.0  0.98037  0.09015  0.98262  1.0000
  O   O4        1.0  0.94824  0.05650  0.97266  1.0000
  C   C16       1.0  0.96271  0.02259  0.94289  1.0000
  C   C17       1.0  0.00293  0.03664  0.91539  1.0000
  H   H1        1.0  0.88703  0.06254  0.06813  1.0000
  H   H2        1.0  0.81764  0.03162  0.04742  1.0000
  H   H3        1.0  0.85164  0.02176  0.00045  1.0000
  H   H4        1.0  0.82694  0.94942  0.01060  1.0000
  H   H5        1.0  0.81541  0.95704  0.06724  1.0000
  H   H6        1.0  0.88428  0.93605  0.09106  1.0000
  H   H7        1.0  0.88219  0.90422  0.04206  1.0000
  H   H8        1.0  0.95406  0.94481  0.05511  1.0000
  H   H9        1.0  0.90179  0.97215  0.97086  1.0000
  H   H10       1.0  0.93454  0.92454  0.97862  1.0000
  H   H11       1.0  0.06453  0.97509  0.93446  1.0000
  H   H12       1.0  0.08304  0.97701  0.02505  1.0000
  H   H13       1.0  0.17292  0.02129  0.04014  1.0000
  H   H14       1.0  0.14470  0.92103  0.03278  1.0000
  H   H15       1.0  0.17446  0.94690  0.07887  1.0000
  H   H16       1.0  0.23591  0.96927  0.02597  1.0000
  H   H17       1.0  0.20555  0.94395  0.97998  1.0000
  H   H18       1.0  0.06987  0.05678  0.93131  1.0000
  H   H19       1.0  0.05099  0.10000  0.99037  1.0000
  H   H20       1.0  0.02982  0.05399  0.01935  1.0000
  H   H21       1.0  0.96992  0.10678  0.01339  1.0000
  H   H22       1.0  0.97905  0.11541  0.95624  1.0000
  H   H23       1.0  0.93504  0.01559  0.92009  1.0000
  H   H24       1.0  0.01079  0.01165  0.88989  1.0000
  H   H25       1.0  0.99664  0.06817  0.89804  1.0000
