data_image0
_chemical_formula_structural       OC8OC2NC2OC6NH24
_chemical_formula_sum              "O3 C18 N2 H24"
_cell_length_a       30
_cell_length_b       30
_cell_length_c       30
_cell_angle_alpha    90
_cell_angle_beta     90
_cell_angle_gamma    90

_space_group_name_H-M_alt    "P 1"
_space_group_IT_number       1

loop_
  _space_group_symop_operation_xyz
  'x, y, z'

loop_
  _atom_site_type_symbol
  _atom_site_label
  _atom_site_symmetry_multiplicity
  _atom_site_fract_x
  _atom_site_fract_y
  _atom_site_fract_z
  _atom_site_occupancy
  O   O1        1.0  0.07657  0.93101  0.90679  1.0000
  C   C1        1.0  0.07567  0.95672  0.93877  1.0000
  C   C2        1.0  0.10391  0.94931  0.97961  1.0000
  C   C3        1.0  0.13181  0.98793  0.99560  1.0000
  C   C4        1.0  0.17154  0.97691  0.01836  1.0000
  C   C5        1.0  0.20035  0.00965  0.03449  1.0000
  C   C6        1.0  0.19000  0.05427  0.02832  1.0000
  C   C7        1.0  0.15064  0.06576  0.00653  1.0000
  C   C8        1.0  0.12109  0.03305  0.99088  1.0000
  O   O2        1.0  0.08437  0.05078  0.97089  1.0000
  C   C9        1.0  0.04351  0.02660  0.97016  1.0000
  C   C10       1.0  0.02391  0.01626  0.01728  1.0000
  N   N1        1.0  0.97820  0.99874  0.02114  1.0000
  C   C11       1.0  0.97214  0.95220  0.00703  1.0000
  C   C12       1.0  0.93809  0.94642  0.96920  1.0000
  O   O3        1.0  0.89527  0.96484  0.97945  1.0000
  C   C13       1.0  0.89692  0.00592  0.00438  1.0000
  C   C14       1.0  0.87963  0.99713  0.05170  1.0000
  C   C15       1.0  0.82915  0.99270  0.04639  1.0000
  C   C16       1.0  0.81709  0.01762  0.00366  1.0000
  C   C17       1.0  0.86071  0.03677  0.98576  1.0000
  C   C18       1.0  0.94346  0.02814  0.00306  1.0000
  N   N2        1.0  0.04609  0.99086  0.93839  1.0000
  H   H1        1.0  0.12632  0.92160  0.97112  1.0000
  H   H2        1.0  0.08266  0.93727  0.00671  1.0000
  H   H3        1.0  0.18061  0.94210  0.02336  1.0000
  H   H4        1.0  0.23088  0.00020  0.05156  1.0000
  H   H5        1.0  0.21232  0.08010  0.04040  1.0000
  H   H6        1.0  0.14262  0.10083  0.00187  1.0000
  H   H7        1.0  0.02032  0.05017  0.95468  1.0000
  H   H8        1.0  0.02532  0.04744  0.03647  1.0000
  H   H9        1.0  0.04604  0.99405  0.03591  1.0000
  H   H10       1.0  0.00354  0.93618  0.99781  1.0000
  H   H11       1.0  0.95987  0.93392  0.03622  1.0000
  H   H12       1.0  0.95012  0.96189  0.93836  1.0000
  H   H13       1.0  0.93326  0.91094  0.96219  1.0000
  H   H14       1.0  0.89344  0.96691  0.06675  1.0000
  H   H15       1.0  0.88705  0.02538  0.07369  1.0000
  H   H16       1.0  0.81163  0.00626  0.07539  1.0000
  H   H17       1.0  0.81964  0.95755  0.04337  1.0000
  H   H18       1.0  0.79253  0.04392  0.00971  1.0000
  H   H19       1.0  0.80248  0.99442  0.97949  1.0000
  H   H20       1.0  0.86496  0.07090  0.99817  1.0000
  H   H21       1.0  0.86044  0.03771  0.94927  1.0000
  H   H22       1.0  0.95079  0.03674  0.96830  1.0000
  H   H23       1.0  0.94297  0.05933  0.02212  1.0000
  H   H24       1.0  0.03010  0.99460  0.90896  1.0000
