data_image0
_chemical_formula_structural       OCNC7ONC5H14
_chemical_formula_sum              "O2 C13 N2 H14"
_cell_length_a       30
_cell_length_b       30
_cell_length_c       30
_cell_angle_alpha    90
_cell_angle_beta     90
_cell_angle_gamma    90

_space_group_name_H-M_alt    "P 1"
_space_group_IT_number       1

loop_
  _space_group_symop_operation_xyz
  'x, y, z'

loop_
  _atom_site_type_symbol
  _atom_site_label
  _atom_site_symmetry_multiplicity
  _atom_site_fract_x
  _atom_site_fract_y
  _atom_site_fract_z
  _atom_site_occupancy
  O   O1        1.0  0.99313  0.98810  0.88486  1.0000
  C   C1        1.0  0.00151  0.98764  0.92522  1.0000
  N   N1        1.0  0.04483  0.99013  0.93731  1.0000
  C   C2        1.0  0.06446  0.99477  0.97923  1.0000
  C   C3        1.0  0.10864  0.01097  0.97774  1.0000
  C   C4        1.0  0.13310  0.01916  0.01639  1.0000
  C   C5        1.0  0.11390  0.01085  0.05748  1.0000
  C   C6        1.0  0.07070  0.99377  0.05938  1.0000
  C   C7        1.0  0.04528  0.98499  0.02053  1.0000
  C   C8        1.0  0.00167  0.96281  0.02923  1.0000
  O   O2        1.0  0.99710  0.94491  0.06603  1.0000
  N   N2        1.0  0.96664  0.96254  0.99863  1.0000
  C   C9        1.0  0.92245  0.95639  0.01855  1.0000
  C   C10       1.0  0.90499  0.00182  0.03460  1.0000
  C   C11       1.0  0.90692  0.03748  0.99777  1.0000
  C   C12       1.0  0.95196  0.03831  0.97317  1.0000
  C   C13       1.0  0.96427  0.99082  0.95929  1.0000
  H   H1        1.0  0.06478  0.99299  0.91018  1.0000
  H   H2        1.0  0.12454  0.01825  0.94593  1.0000
  H   H3        1.0  0.16691  0.03203  0.01426  1.0000
  H   H4        1.0  0.13241  0.01691  0.08803  1.0000
  H   H5        1.0  0.05685  0.98653  0.09221  1.0000
  H   H6        1.0  0.92347  0.93275  0.04635  1.0000
  H   H7        1.0  0.90014  0.94216  0.99334  1.0000
  H   H8        1.0  0.92522  0.01325  0.06285  1.0000
  H   H9        1.0  0.87072  0.99838  0.04673  1.0000
  H   H10       1.0  0.89997  0.07039  0.01200  1.0000
  H   H11       1.0  0.88041  0.03064  0.97352  1.0000
  H   H12       1.0  0.94964  0.06017  0.94399  1.0000
  H   H13       1.0  0.97750  0.05258  0.99507  1.0000
  H   H14       1.0  0.93586  0.97752  0.94015  1.0000
