data_image0
_chemical_formula_structural       OC2SCN2CSC6NC3NC7H18
_chemical_formula_sum              "O1 C20 S2 N4 H18"
_cell_length_a       30
_cell_length_b       30
_cell_length_c       30
_cell_angle_alpha    90
_cell_angle_beta     90
_cell_angle_gamma    90

_space_group_name_H-M_alt    "P 1"
_space_group_IT_number       1

loop_
  _space_group_symop_operation_xyz
  'x, y, z'

loop_
  _atom_site_type_symbol
  _atom_site_label
  _atom_site_symmetry_multiplicity
  _atom_site_fract_x
  _atom_site_fract_y
  _atom_site_fract_z
  _atom_site_occupancy
  O   O1        1.0  0.96611  0.03577  0.05190  1.0000
  C   C1        1.0  0.97063  0.00403  0.02625  1.0000
  C   C2        1.0  0.01347  0.99712  0.99887  1.0000
  S   S1        1.0  0.03827  0.05036  0.98205  1.0000
  C   C3        1.0  0.07543  0.05875  0.02519  1.0000
  N   N1        1.0  0.06645  0.07957  0.06306  1.0000
  N   N2        1.0  0.10454  0.07898  0.08952  1.0000
  C   C4        1.0  0.13488  0.05830  0.06612  1.0000
  S   S2        1.0  0.19001  0.04402  0.07510  1.0000
  C   C5        1.0  0.19066  0.01954  0.02037  1.0000
  C   C6        1.0  0.22658  0.99892  0.99987  1.0000
  C   C7        1.0  0.22080  0.98210  0.95675  1.0000
  C   C8        1.0  0.17953  0.98595  0.93489  1.0000
  C   C9        1.0  0.14316  0.00675  0.95552  1.0000
  C   C10       1.0  0.14948  0.02319  0.99814  1.0000
  N   N3        1.0  0.11895  0.04526  0.02551  1.0000
  C   C11       1.0  0.00622  0.96980  0.95655  1.0000
  C   C12       1.0  0.98193  0.92689  0.96814  1.0000
  C   C13       1.0  0.93660  0.93845  0.98738  1.0000
  N   N4        1.0  0.93885  0.97001  0.02424  1.0000
  C   C14       1.0  0.89894  0.97410  0.05209  1.0000
  C   C15       1.0  0.85935  0.99343  0.02760  1.0000
  C   C16       1.0  0.82400  0.96611  0.01394  1.0000
  C   C17       1.0  0.78717  0.98433  0.99195  1.0000
  C   C18       1.0  0.78567  0.02994  0.98279  1.0000
  C   C19       1.0  0.82081  0.05737  0.99583  1.0000
  C   C20       1.0  0.85744  0.03923  0.01811  1.0000
  H   H1        1.0  0.03693  0.97916  0.02055  1.0000
  H   H2        1.0  0.25858  0.99602  0.01650  1.0000
  H   H3        1.0  0.24866  0.96593  0.93987  1.0000
  H   H4        1.0  0.17605  0.97279  0.90118  1.0000
  H   H5        1.0  0.11195  0.00960  0.93762  1.0000
  H   H6        1.0  0.98653  0.98837  0.93188  1.0000
  H   H7        1.0  0.03824  0.96150  0.94095  1.0000
  H   H8        1.0  0.00145  0.90742  0.99221  1.0000
  H   H9        1.0  0.97786  0.90634  0.93820  1.0000
  H   H10       1.0  0.92042  0.90791  0.99920  1.0000
  H   H11       1.0  0.91552  0.95316  0.96138  1.0000
  H   H12       1.0  0.90583  0.99447  0.08165  1.0000
  H   H13       1.0  0.89098  0.94069  0.06469  1.0000
  H   H14       1.0  0.82464  0.93053  0.02047  1.0000
  H   H15       1.0  0.75949  0.96303  0.98218  1.0000
  H   H16       1.0  0.75699  0.04410  0.96579  1.0000
  H   H17       1.0  0.81956  0.09298  0.98923  1.0000
  H   H18       1.0  0.88437  0.06116  0.02873  1.0000
