data_image0
_chemical_formula_structural       OCNC5ClSC4FC2NCOH10
_chemical_formula_sum              "O2 C13 N2 Cl1 S1 F1 H10"
_cell_length_a       30
_cell_length_b       30
_cell_length_c       30
_cell_angle_alpha    90
_cell_angle_beta     90
_cell_angle_gamma    90

_space_group_name_H-M_alt    "P 1"
_space_group_IT_number       1

loop_
  _space_group_symop_operation_xyz
  'x, y, z'

loop_
  _atom_site_type_symbol
  _atom_site_label
  _atom_site_symmetry_multiplicity
  _atom_site_fract_x
  _atom_site_fract_y
  _atom_site_fract_z
  _atom_site_occupancy
  O   O1        1.0  0.21385  0.98622  0.98706  1.0000
  C   C1        1.0  0.17943  0.00581  0.99467  1.0000
  N   N1        1.0  0.13676  0.99500  0.98154  1.0000
  C   C2        1.0  0.10631  0.02522  0.99659  1.0000
  C   C3        1.0  0.06226  0.02466  0.98988  1.0000
  C   C4        1.0  0.03778  0.99140  0.96484  1.0000
  C   C5        1.0  0.99327  0.99290  0.95990  1.0000
  C   C6        1.0  0.96657  0.95957  0.93377  1.0000
  Cl  Cl1       1.0  0.93101  0.98764  0.89551  1.0000
  S   S1        1.0  0.93617  0.92125  0.96994  1.0000
  C   C7        1.0  0.90467  0.95825  0.00415  1.0000
  C   C8        1.0  0.86384  0.97546  0.98952  1.0000
  C   C9        1.0  0.83925  0.00395  0.01693  1.0000
  C   C10       1.0  0.85532  0.01467  0.05903  1.0000
  F   F1        1.0  0.83173  0.04198  0.08530  1.0000
  C   C11       1.0  0.89543  0.99728  0.07436  1.0000
  C   C12       1.0  0.92006  0.96884  0.04696  1.0000
  N   N2        1.0  0.12807  0.05729  0.02038  1.0000
  C   C13       1.0  0.17333  0.04959  0.02197  1.0000
  O   O2        1.0  0.20200  0.07137  0.04014  1.0000
  H   H1        1.0  0.13026  0.96773  0.96306  1.0000
  H   H2        1.0  0.04240  0.05144  0.00428  1.0000
  H   H3        1.0  0.05642  0.96428  0.94968  1.0000
  H   H4        1.0  0.97447  0.02019  0.97471  1.0000
  H   H5        1.0  0.98873  0.93902  0.91332  1.0000
  H   H6        1.0  0.85074  0.96681  0.95684  1.0000
  H   H7        1.0  0.80766  0.01760  0.00577  1.0000
  H   H8        1.0  0.90711  0.00576  0.10753  1.0000
  H   H9        1.0  0.95122  0.95499  0.05930  1.0000
  H   H10       1.0  0.11387  0.08383  0.03535  1.0000
