data_image0
_chemical_formula_structural       OC5NC3ONC5NC6ClC6H30
_chemical_formula_sum              "O2 C25 N3 Cl1 H30"
_cell_length_a       30
_cell_length_b       30
_cell_length_c       30
_cell_angle_alpha    90
_cell_angle_beta     90
_cell_angle_gamma    90

_space_group_name_H-M_alt    "P 1"
_space_group_IT_number       1

loop_
  _space_group_symop_operation_xyz
  'x, y, z'

loop_
  _atom_site_type_symbol
  _atom_site_label
  _atom_site_symmetry_multiplicity
  _atom_site_fract_x
  _atom_site_fract_y
  _atom_site_fract_z
  _atom_site_occupancy
  O   O1        1.0  0.82058  0.91580  0.95238  1.0000
  C   C1        1.0  0.80682  0.93714  0.98448  1.0000
  C   C2        1.0  0.75727  0.94318  0.99264  1.0000
  C   C3        1.0  0.74767  0.98970  0.01034  1.0000
  C   C4        1.0  0.77400  0.99984  0.05273  1.0000
  C   C5        1.0  0.81378  0.96881  0.05910  1.0000
  N   N1        1.0  0.83420  0.95651  0.01678  1.0000
  C   C6        1.0  0.88247  0.94795  0.01577  1.0000
  C   C7        1.0  0.91200  0.98582  0.99589  1.0000
  C   C8        1.0  0.96131  0.97117  0.00197  1.0000
  O   O2        1.0  0.97081  0.93733  0.02300  1.0000
  N   N2        1.0  0.99223  0.99980  0.98301  1.0000
  C   C9        1.0  0.03912  0.99600  0.98321  1.0000
  C   C10       1.0  0.06251  0.96117  0.00326  1.0000
  C   C11       1.0  0.10917  0.96003  0.00197  1.0000
  C   C12       1.0  0.13327  0.99366  0.98042  1.0000
  C   C13       1.0  0.18362  0.99273  0.97932  1.0000
  N   N3        1.0  0.20084  0.02790  0.00805  1.0000
  C   C14       1.0  0.24664  0.02805  0.01827  1.0000
  C   C15       1.0  0.27903  0.01478  0.98729  1.0000
  C   C16       1.0  0.32454  0.01732  0.99727  1.0000
  C   C17       1.0  0.33867  0.03399  0.03821  1.0000
  C   C18       1.0  0.30728  0.04851  0.06915  1.0000
  C   C19       1.0  0.26184  0.04593  0.05908  1.0000
  Cl  Cl1       1.0  0.22424  0.06440  0.09885  1.0000
  C   C20       1.0  0.10979  0.02871  0.96049  1.0000
  C   C21       1.0  0.06321  0.02978  0.96181  1.0000
  C   C22       1.0  0.90159  0.99436  0.94592  1.0000
  C   C23       1.0  0.89468  0.04453  0.94116  1.0000
  C   C24       1.0  0.87675  0.05863  0.98624  1.0000
  C   C25       1.0  0.90424  0.03132  0.01899  1.0000
  H   H1        1.0  0.73965  0.93838  0.96102  1.0000
  H   H2        1.0  0.74596  0.91743  0.01592  1.0000
  H   H3        1.0  0.75681  0.01423  0.98476  1.0000
  H   H4        1.0  0.71192  0.99391  0.01649  1.0000
  H   H5        1.0  0.78544  0.03454  0.05132  1.0000
  H   H6        1.0  0.75226  0.99751  0.08202  1.0000
  H   H7        1.0  0.83822  0.98461  0.08106  1.0000
  H   H8        1.0  0.80305  0.93785  0.07534  1.0000
  H   H9        1.0  0.88839  0.91717  0.99687  1.0000
  H   H10       1.0  0.89272  0.94059  0.05013  1.0000
  H   H11       1.0  0.98021  0.02685  0.96695  1.0000
  H   H12       1.0  0.04556  0.93416  0.02035  1.0000
  H   H13       1.0  0.12637  0.93248  0.01810  1.0000
  H   H14       1.0  0.19564  0.95998  0.99033  1.0000
  H   H15       1.0  0.19447  0.99752  0.94473  1.0000
  H   H16       1.0  0.18249  0.03121  0.03655  1.0000
  H   H17       1.0  0.26952  0.00265  0.95453  1.0000
  H   H18       1.0  0.34896  0.00658  0.97271  1.0000
  H   H19       1.0  0.37403  0.03605  0.04583  1.0000
  H   H20       1.0  0.31826  0.06194  0.10095  1.0000
  H   H21       1.0  0.12787  0.05556  0.94408  1.0000
  H   H22       1.0  0.04622  0.05759  0.94598  1.0000
  H   H23       1.0  0.87102  0.97772  0.93536  1.0000
  H   H24       1.0  0.92781  0.98264  0.92337  1.0000
  H   H25       1.0  0.87169  0.05266  0.91404  1.0000
  H   H26       1.0  0.92636  0.06131  0.93426  1.0000
  H   H27       1.0  0.88020  0.09448  0.99190  1.0000
  H   H28       1.0  0.84136  0.05011  0.98895  1.0000
  H   H29       1.0  0.93566  0.04881  0.02550  1.0000
  H   H30       1.0  0.88766  0.02862  0.05128  1.0000
