data_image0
_chemical_formula_structural       OC3NC2NC3H14
_chemical_formula_sum              "O1 C8 N2 H14"
_cell_length_a       30
_cell_length_b       30
_cell_length_c       30
_cell_angle_alpha    90
_cell_angle_beta     90
_cell_angle_gamma    90

_space_group_name_H-M_alt    "P 1"
_space_group_IT_number       1

loop_
  _space_group_symop_operation_xyz
  'x, y, z'

loop_
  _atom_site_type_symbol
  _atom_site_label
  _atom_site_symmetry_multiplicity
  _atom_site_fract_x
  _atom_site_fract_y
  _atom_site_fract_z
  _atom_site_occupancy
  O   O1        1.0  0.88227  0.03603  0.99654  1.0000
  C   C1        1.0  0.91682  0.01700  0.00781  1.0000
  C   C2        1.0  0.91980  0.96703  0.01070  1.0000
  C   C3        1.0  0.96230  0.95179  0.98771  1.0000
  N   N1        1.0  0.00165  0.97479  0.00547  1.0000
  C   C4        1.0  0.04308  0.95700  0.98541  1.0000
  C   C5        1.0  0.08081  0.99140  0.97778  1.0000
  N   N2        1.0  0.08374  0.02484  0.01300  1.0000
  C   C6        1.0  0.04088  0.04756  0.01981  1.0000
  C   C7        1.0  0.99892  0.02367  0.00050  1.0000
  C   C8        1.0  0.95724  0.04251  0.02304  1.0000
  H   H1        1.0  0.89069  0.95220  0.99442  1.0000
  H   H2        1.0  0.91943  0.95742  0.04592  1.0000
  H   H3        1.0  0.95942  0.95758  0.95167  1.0000
  H   H4        1.0  0.96574  0.91574  0.99272  1.0000
  H   H5        1.0  0.05539  0.93078  0.00773  1.0000
  H   H6        1.0  0.03643  0.94109  0.95313  1.0000
  H   H7        1.0  0.07558  0.00823  0.94572  1.0000
  H   H8        1.0  0.11268  0.97372  0.97530  1.0000
  H   H9        1.0  0.10812  0.04744  0.00624  1.0000
  H   H10       1.0  0.04277  0.08093  0.00496  1.0000
  H   H11       1.0  0.03713  0.05236  0.05585  1.0000
  H   H12       1.0  0.99703  0.03138  0.96468  1.0000
  H   H13       1.0  0.95904  0.03977  0.05943  1.0000
  H   H14       1.0  0.95303  0.07775  0.01443  1.0000
