data_image0
_chemical_formula_structural       OC2NC11SH21
_chemical_formula_sum              "O1 C13 N1 S1 H21"
_cell_length_a       30
_cell_length_b       30
_cell_length_c       30
_cell_angle_alpha    90
_cell_angle_beta     90
_cell_angle_gamma    90

_space_group_name_H-M_alt    "P 1"
_space_group_IT_number       1

loop_
  _space_group_symop_operation_xyz
  'x, y, z'

loop_
  _atom_site_type_symbol
  _atom_site_label
  _atom_site_symmetry_multiplicity
  _atom_site_fract_x
  _atom_site_fract_y
  _atom_site_fract_z
  _atom_site_occupancy
  O   O1        1.0  0.15927  0.90898  0.99869  1.0000
  C   C1        1.0  0.13085  0.93814  0.99800  1.0000
  C   C2        1.0  0.08367  0.93275  0.98145  1.0000
  N   N1        1.0  0.05697  0.97076  0.99800  1.0000
  C   C3        1.0  0.01539  0.97405  0.97264  1.0000
  C   C4        1.0  0.97978  0.00825  0.98888  1.0000
  C   C5        1.0  0.96545  0.99942  0.03790  1.0000
  C   C6        1.0  0.92754  0.96568  0.04143  1.0000
  C   C7        1.0  0.88523  0.98264  0.01865  1.0000
  C   C8        1.0  0.89464  0.01407  0.97967  1.0000
  C   C9        1.0  0.93872  0.00273  0.95698  1.0000
  C   C10       1.0  0.99765  0.05639  0.98299  1.0000
  C   C11       1.0  0.03028  0.07441  0.01759  1.0000
  C   C12       1.0  0.06944  0.04513  0.03164  1.0000
  C   C13       1.0  0.08496  0.01070  0.99742  1.0000
  S   S1        1.0  0.14138  0.99336  0.01313  1.0000
  H   H1        1.0  0.07006  0.90140  0.99421  1.0000
  H   H2        1.0  0.08493  0.93179  0.94493  1.0000
  H   H3        1.0  0.99974  0.94094  0.97340  1.0000
  H   H4        1.0  0.02298  0.98070  0.93740  1.0000
  H   H5        1.0  0.95410  0.03053  0.05347  1.0000
  H   H6        1.0  0.99356  0.98769  0.05801  1.0000
  H   H7        1.0  0.92034  0.95847  0.07652  1.0000
  H   H8        1.0  0.93782  0.93403  0.02630  1.0000
  H   H9        1.0  0.86582  0.95391  0.00707  1.0000
  H   H10       1.0  0.86415  0.00005  0.04292  1.0000
  H   H11       1.0  0.89549  0.04859  0.99167  1.0000
  H   H12       1.0  0.86722  0.01217  0.95561  1.0000
  H   H13       1.0  0.93640  0.96828  0.94482  1.0000
  H   H14       1.0  0.94286  0.02347  0.92714  1.0000
  H   H15       1.0  0.01301  0.05945  0.94988  1.0000
  H   H16       1.0  0.96937  0.07965  0.98240  1.0000
  H   H17       1.0  0.01198  0.08433  0.04768  1.0000
  H   H18       1.0  0.04382  0.10568  0.00417  1.0000
  H   H19       1.0  0.06085  0.02834  0.06304  1.0000
  H   H20       1.0  0.09678  0.06791  0.04035  1.0000
  H   H21       1.0  0.08751  0.02517  0.96396  1.0000
