data_image0
_chemical_formula_structural       OC2N2CNC6NC4FC2NC2H18
_chemical_formula_sum              "O1 C17 N5 F1 H18"
_cell_length_a       30
_cell_length_b       30
_cell_length_c       30
_cell_angle_alpha    90
_cell_angle_beta     90
_cell_angle_gamma    90

_space_group_name_H-M_alt    "P 1"
_space_group_IT_number       1

loop_
  _space_group_symop_operation_xyz
  'x, y, z'

loop_
  _atom_site_type_symbol
  _atom_site_label
  _atom_site_symmetry_multiplicity
  _atom_site_fract_x
  _atom_site_fract_y
  _atom_site_fract_z
  _atom_site_occupancy
  O   O1        1.0  0.21623  0.98454  0.97685  1.0000
  C   C1        1.0  0.17789  0.97423  0.98438  1.0000
  C   C2        1.0  0.16462  0.93096  0.00402  1.0000
  N   N1        1.0  0.12203  0.92768  0.00846  1.0000
  N   N2        1.0  0.10267  0.96697  0.99284  1.0000
  C   C3        1.0  0.05683  0.97384  0.99123  1.0000
  N   N3        1.0  0.02706  0.94532  0.00471  1.0000
  C   C4        1.0  0.98262  0.96627  0.99655  1.0000
  C   C5        1.0  0.96009  0.96831  0.04294  1.0000
  C   C6        1.0  0.90913  0.96857  0.04345  1.0000
  C   C7        1.0  0.88876  0.93488  0.01148  1.0000
  C   C8        1.0  0.90769  0.93965  0.96467  1.0000
  C   C9        1.0  0.95813  0.93387  0.96484  1.0000
  N   N4        1.0  0.98897  0.00937  0.97309  1.0000
  C   C10       1.0  0.97263  0.05002  0.98867  1.0000
  C   C11       1.0  0.92930  0.06565  0.98772  1.0000
  C   C12       1.0  0.92028  0.10777  0.00556  1.0000
  C   C13       1.0  0.95477  0.13347  0.02358  1.0000
  F   F1        1.0  0.94530  0.17351  0.04094  1.0000
  C   C14       1.0  0.99860  0.11848  0.02364  1.0000
  C   C15       1.0  0.00682  0.07733  0.00472  1.0000
  N   N5        1.0  0.04903  0.05547  0.00282  1.0000
  C   C16       1.0  0.03727  0.01752  0.97333  1.0000
  C   C17       1.0  0.13570  0.99952  0.97704  1.0000
  H   H1        1.0  0.19032  0.90645  0.01277  1.0000
  H   H2        1.0  0.97280  0.99639  0.06261  1.0000
  H   H3        1.0  0.97016  0.93847  0.06174  1.0000
  H   H4        1.0  0.89637  0.00174  0.03574  1.0000
  H   H5        1.0  0.89756  0.96138  0.07739  1.0000
  H   H6        1.0  0.89509  0.90104  0.02382  1.0000
  H   H7        1.0  0.85250  0.93919  0.01062  1.0000
  H   H8        1.0  0.89873  0.97212  0.95062  1.0000
  H   H9        1.0  0.89271  0.91437  0.94295  1.0000
  H   H10       1.0  0.97084  0.93736  0.93070  1.0000
  H   H11       1.0  0.96543  0.89934  0.97469  1.0000
  H   H12       1.0  0.90270  0.04604  0.97314  1.0000
  H   H13       1.0  0.88653  0.12085  0.00554  1.0000
  H   H14       1.0  0.02503  0.13881  0.03738  1.0000
  H   H15       1.0  0.05420  0.04343  0.03427  1.0000
  H   H16       1.0  0.04943  0.02349  0.93937  1.0000
  H   H17       1.0  0.13140  0.00671  0.94160  1.0000
  H   H18       1.0  0.13577  0.02960  0.99754  1.0000
