data_image0
_chemical_formula_structural       OC2NC3NCO2C5OC3NH23
_chemical_formula_sum              "O4 C14 N3 H23"
_cell_length_a       30
_cell_length_b       30
_cell_length_c       30
_cell_angle_alpha    90
_cell_angle_beta     90
_cell_angle_gamma    90

_space_group_name_H-M_alt    "P 1"
_space_group_IT_number       1

loop_
  _space_group_symop_operation_xyz
  'x, y, z'

loop_
  _atom_site_type_symbol
  _atom_site_label
  _atom_site_symmetry_multiplicity
  _atom_site_fract_x
  _atom_site_fract_y
  _atom_site_fract_z
  _atom_site_occupancy
  O   O1        1.0  0.79326  0.06552  0.94533  1.0000
  C   C1        1.0  0.82330  0.04183  0.96008  1.0000
  C   C2        1.0  0.83394  0.99584  0.94057  1.0000
  N   N1        1.0  0.85800  0.96581  0.97133  1.0000
  C   C3        1.0  0.89589  0.98770  0.99428  1.0000
  C   C4        1.0  0.91562  0.95320  0.02694  1.0000
  C   C5        1.0  0.95749  0.97021  0.05022  1.0000
  N   N2        1.0  0.99057  0.98697  0.01891  1.0000
  C   C6        1.0  0.03482  0.98735  0.03300  1.0000
  O   O2        1.0  0.04798  0.96878  0.06693  1.0000
  O   O3        1.0  0.06173  0.01051  0.00501  1.0000
  C   C7        1.0  0.10769  0.01239  0.01768  1.0000
  C   C8        1.0  0.13154  0.97015  0.00176  1.0000
  C   C9        1.0  0.18145  0.97293  0.01080  1.0000
  C   C10       1.0  0.20049  0.01635  0.99257  1.0000
  C   C11       1.0  0.17305  0.05600  0.00840  1.0000
  O   O4        1.0  0.12732  0.05058  0.99659  1.0000
  C   C12       1.0  0.97519  0.01748  0.98423  1.0000
  C   C13       1.0  0.93293  0.00105  0.96107  1.0000
  C   C14       1.0  0.87704  0.02828  0.02031  1.0000
  N   N3        1.0  0.85099  0.05802  0.99269  1.0000
  H   H1        1.0  0.80230  0.97990  0.93179  1.0000
  H   H2        1.0  0.85308  0.00072  0.90987  1.0000
  H   H3        1.0  0.86878  0.93875  0.95381  1.0000
  H   H4        1.0  0.92436  0.92266  0.00867  1.0000
  H   H5        1.0  0.89094  0.94351  0.05214  1.0000
  H   H6        1.0  0.97183  0.94316  0.07015  1.0000
  H   H7        1.0  0.94956  0.99730  0.07343  1.0000
  H   H8        1.0  0.11073  0.01686  0.05388  1.0000
  H   H9        1.0  0.12612  0.96613  0.96580  1.0000
  H   H10       1.0  0.11750  0.94041  0.01760  1.0000
  H   H11       1.0  0.18736  0.97124  0.04684  1.0000
  H   H12       1.0  0.19857  0.94440  0.99575  1.0000
  H   H13       1.0  0.19960  0.01502  0.95604  1.0000
  H   H14       1.0  0.23537  0.02016  0.00263  1.0000
  H   H15       1.0  0.18510  0.08653  0.99245  1.0000
  H   H16       1.0  0.17591  0.06061  0.04454  1.0000
  H   H17       1.0  0.00115  0.02203  0.95897  1.0000
  H   H18       1.0  0.96987  0.05006  0.99986  1.0000
  H   H19       1.0  0.92160  0.02695  0.93792  1.0000
  H   H20       1.0  0.94172  0.97196  0.94060  1.0000
  H   H21       1.0  0.90315  0.04839  0.03587  1.0000
  H   H22       1.0  0.85475  0.01690  0.04699  1.0000
  H   H23       1.0  0.84038  0.08732  0.00567  1.0000
