data_image0
_chemical_formula_structural       OC7NCNC2NFCFC4ClC2H14
_chemical_formula_sum              "O1 C17 N3 F2 Cl1 H14"
_cell_length_a       30
_cell_length_b       30
_cell_length_c       30
_cell_angle_alpha    90
_cell_angle_beta     90
_cell_angle_gamma    90

_space_group_name_H-M_alt    "P 1"
_space_group_IT_number       1

loop_
  _space_group_symop_operation_xyz
  'x, y, z'

loop_
  _atom_site_type_symbol
  _atom_site_label
  _atom_site_symmetry_multiplicity
  _atom_site_fract_x
  _atom_site_fract_y
  _atom_site_fract_z
  _atom_site_occupancy
  O   O1        1.0  0.06688  0.97158  0.07530  1.0000
  C   C1        1.0  0.07595  0.99769  0.04508  1.0000
  C   C2        1.0  0.12197  0.00088  0.02809  1.0000
  C   C3        1.0  0.15615  0.97475  0.04613  1.0000
  C   C4        1.0  0.19928  0.97860  0.02925  1.0000
  C   C5        1.0  0.20800  0.00837  0.99461  1.0000
  C   C6        1.0  0.17359  0.03428  0.97683  1.0000
  C   C7        1.0  0.13023  0.03076  0.99342  1.0000
  N   N1        1.0  0.09666  0.05730  0.97464  1.0000
  C   C8        1.0  0.05691  0.05342  0.99065  1.0000
  N   N2        1.0  0.04492  0.02546  0.02489  1.0000
  C   C9        1.0  0.99856  0.02310  0.03955  1.0000
  C   C10       1.0  0.97352  0.98264  0.02028  1.0000
  N   N3        1.0  0.97001  0.98159  0.97153  1.0000
  F   F1        1.0  0.96187  0.93880  0.95665  1.0000
  C   C11       1.0  0.93814  0.01346  0.95261  1.0000
  F   F2        1.0  0.95302  0.05547  0.96191  1.0000
  C   C12       1.0  0.88993  0.00670  0.96663  1.0000
  C   C13       1.0  0.86614  0.96853  0.95355  1.0000
  C   C14       1.0  0.82181  0.96256  0.96654  1.0000
  C   C15       1.0  0.80083  0.99477  0.99256  1.0000
  Cl  Cl1       1.0  0.74626  0.98743  0.00854  1.0000
  C   C16       1.0  0.82378  0.03295  0.00566  1.0000
  C   C17       1.0  0.86812  0.03892  0.99271  1.0000
  H   H1        1.0  0.14921  0.95156  0.07312  1.0000
  H   H2        1.0  0.22605  0.95843  0.04306  1.0000
  H   H3        1.0  0.24159  0.01146  0.98134  1.0000
  H   H4        1.0  0.18049  0.05743  0.94981  1.0000
  H   H5        1.0  0.02961  0.07369  0.97688  1.0000
  H   H6        1.0  0.98152  0.05431  0.03145  1.0000
  H   H7        1.0  0.99838  0.02037  0.07602  1.0000
  H   H8        1.0  0.94065  0.97990  0.03595  1.0000
  H   H9        1.0  0.99155  0.95245  0.03027  1.0000
  H   H10       1.0  0.93950  0.01064  0.91622  1.0000
  H   H11       1.0  0.88209  0.94305  0.93319  1.0000
  H   H12       1.0  0.80392  0.93278  0.95625  1.0000
  H   H13       1.0  0.80736  0.05818  0.02583  1.0000
  H   H14       1.0  0.88557  0.06904  0.00300  1.0000
