data_image0
_chemical_formula_structural       OC6NCOC3SC5FC2NC2NH20
_chemical_formula_sum              "O2 C19 N3 S1 F1 H20"
_cell_length_a       30
_cell_length_b       30
_cell_length_c       30
_cell_angle_alpha    90
_cell_angle_beta     90
_cell_angle_gamma    90

_space_group_name_H-M_alt    "P 1"
_space_group_IT_number       1

loop_
  _space_group_symop_operation_xyz
  'x, y, z'

loop_
  _atom_site_type_symbol
  _atom_site_label
  _atom_site_symmetry_multiplicity
  _atom_site_fract_x
  _atom_site_fract_y
  _atom_site_fract_z
  _atom_site_occupancy
  O   O1        1.0  0.24386  0.99947  0.07345  1.0000
  C   C1        1.0  0.21317  0.00139  0.04696  1.0000
  C   C2        1.0  0.21519  0.99053  0.99798  1.0000
  C   C3        1.0  0.17039  0.00772  0.98075  1.0000
  C   C4        1.0  0.13911  0.00415  0.02121  1.0000
  C   C5        1.0  0.11835  0.95749  0.02599  1.0000
  C   C6        1.0  0.08288  0.94828  0.99072  1.0000
  N   N1        1.0  0.04985  0.98399  0.98745  1.0000
  C   C7        1.0  0.00782  0.97209  0.97047  1.0000
  O   O2        1.0  0.99912  0.93310  0.96088  1.0000
  C   C8        1.0  0.97419  0.00973  0.96434  1.0000
  C   C9        1.0  0.92756  0.99440  0.95538  1.0000
  C   C10       1.0  0.91314  0.96657  0.92168  1.0000
  S   S1        1.0  0.85667  0.95979  0.92447  1.0000
  C   C11       1.0  0.85441  0.99486  0.96997  1.0000
  C   C12       1.0  0.81207  0.00588  0.99271  1.0000
  C   C13       1.0  0.81320  0.03519  0.02940  1.0000
  C   C14       1.0  0.77432  0.04691  0.05226  1.0000
  C   C15       1.0  0.73378  0.02936  0.03863  1.0000
  F   F1        1.0  0.69646  0.04050  0.06043  1.0000
  C   C16       1.0  0.73145  0.00036  0.00265  1.0000
  C   C17       1.0  0.77040  0.98865  0.97978  1.0000
  N   N2        1.0  0.89357  0.01093  0.98216  1.0000
  C   C18       1.0  0.06753  0.02935  0.98424  1.0000
  C   C19       1.0  0.10186  0.03905  0.02041  1.0000
  N   N3        1.0  0.16980  0.01260  0.05744  1.0000
  H   H1        1.0  0.24315  0.00752  0.98198  1.0000
  H   H2        1.0  0.21824  0.95443  0.99387  1.0000
  H   H3        1.0  0.17447  0.04271  0.97079  1.0000
  H   H4        1.0  0.15919  0.98937  0.95132  1.0000
  H   H5        1.0  0.10282  0.95482  0.05906  1.0000
  H   H6        1.0  0.14384  0.93132  0.02474  1.0000
  H   H7        1.0  0.06638  0.91669  0.99876  1.0000
  H   H8        1.0  0.09792  0.94425  0.95767  1.0000
  H   H9        1.0  0.97381  0.02992  0.99479  1.0000
  H   H10       1.0  0.98519  0.03064  0.93648  1.0000
  H   H11       1.0  0.93281  0.94978  0.89658  1.0000
  H   H12       1.0  0.84485  0.04915  0.04044  1.0000
  H   H13       1.0  0.77560  0.06950  0.08048  1.0000
  H   H14       1.0  0.69939  0.98696  0.99254  1.0000
  H   H15       1.0  0.76727  0.96583  0.95181  1.0000
  H   H16       1.0  0.04087  0.05402  0.98663  1.0000
  H   H17       1.0  0.08224  0.03289  0.95097  1.0000
  H   H18       1.0  0.08502  0.03949  0.05292  1.0000
  H   H19       1.0  0.11558  0.07262  0.01567  1.0000
  H   H20       1.0  0.16120  0.01575  0.08998  1.0000
