data_image0
_chemical_formula_structural       OCNC6NC3OCOH10
_chemical_formula_sum              "O3 C11 N2 H10"
_cell_length_a       30
_cell_length_b       30
_cell_length_c       30
_cell_angle_alpha    90
_cell_angle_beta     90
_cell_angle_gamma    90

_space_group_name_H-M_alt    "P 1"
_space_group_IT_number       1

loop_
  _space_group_symop_operation_xyz
  'x, y, z'

loop_
  _atom_site_type_symbol
  _atom_site_label
  _atom_site_symmetry_multiplicity
  _atom_site_fract_x
  _atom_site_fract_y
  _atom_site_fract_z
  _atom_site_occupancy
  O   O1        1.0  0.96742  0.86629  0.00178  1.0000
  C   C1        1.0  0.97049  0.90693  0.99948  1.0000
  N   N1        1.0  0.93454  0.93395  0.00724  1.0000
  C   C2        1.0  0.93637  0.98029  0.00508  1.0000
  C   C3        1.0  0.89746  0.00424  0.01438  1.0000
  C   C4        1.0  0.89790  0.05061  0.01282  1.0000
  C   C5        1.0  0.93714  0.07282  0.00207  1.0000
  C   C6        1.0  0.97599  0.04877  0.99268  1.0000
  C   C7        1.0  0.97625  0.00206  0.99389  1.0000
  N   N2        1.0  0.01507  0.97631  0.98429  1.0000
  C   C8        1.0  0.05731  0.99730  0.97237  1.0000
  C   C9        1.0  0.08402  0.00882  0.01292  1.0000
  C   C10       1.0  0.12362  0.03952  0.00943  1.0000
  O   O2        1.0  0.08168  0.05441  0.02692  1.0000
  C   C11       1.0  0.01492  0.92975  0.98777  1.0000
  O   O3        1.0  0.04814  0.90651  0.98208  1.0000
  H   H1        1.0  0.90586  0.91812  0.01517  1.0000
  H   H2        1.0  0.86668  0.98718  0.02298  1.0000
  H   H3        1.0  0.86778  0.06939  0.02014  1.0000
  H   H4        1.0  0.93775  0.10907  0.00110  1.0000
  H   H5        1.0  0.00568  0.06795  0.98496  1.0000
  H   H6        1.0  0.07698  0.97397  0.95222  1.0000
  H   H7        1.0  0.05157  0.02604  0.95059  1.0000
  H   H8        1.0  0.08506  0.98278  0.03786  1.0000
  H   H9        1.0  0.13354  0.05181  0.97698  1.0000
  H   H10       1.0  0.15076  0.03510  0.03282  1.0000
