data_image0
_chemical_formula_structural       OCNC7NSO2C12OC4H24
_chemical_formula_sum              "O4 C24 N2 S1 H24"
_cell_length_a       30
_cell_length_b       30
_cell_length_c       30
_cell_angle_alpha    90
_cell_angle_beta     90
_cell_angle_gamma    90

_space_group_name_H-M_alt    "P 1"
_space_group_IT_number       1

loop_
  _space_group_symop_operation_xyz
  'x, y, z'

loop_
  _atom_site_type_symbol
  _atom_site_label
  _atom_site_symmetry_multiplicity
  _atom_site_fract_x
  _atom_site_fract_y
  _atom_site_fract_z
  _atom_site_occupancy
  O   O1        1.0  0.22002  0.98127  0.10789  1.0000
  C   C1        1.0  0.20169  0.98219  0.07076  1.0000
  N   N1        1.0  0.15736  0.99307  0.07114  1.0000
  C   C2        1.0  0.12335  0.99445  0.03907  1.0000
  C   C3        1.0  0.08401  0.01562  0.05328  1.0000
  C   C4        1.0  0.04635  0.01868  0.02590  1.0000
  C   C5        1.0  0.04646  0.99998  0.98331  1.0000
  C   C6        1.0  0.00651  0.00194  0.95276  1.0000
  C   C7        1.0  0.98980  0.04902  0.94258  1.0000
  C   C8        1.0  0.94362  0.04091  0.92293  1.0000
  N   N2        1.0  0.92808  0.99945  0.94435  1.0000
  S   S1        1.0  0.87511  0.99581  0.96302  1.0000
  O   O2        1.0  0.86978  0.95036  0.97841  1.0000
  O   O3        1.0  0.84751  0.01381  0.92770  1.0000
  C   C9        1.0  0.87259  0.03162  0.00840  1.0000
  C   C10       1.0  0.83671  0.03469  0.03495  1.0000
  C   C11       1.0  0.79496  0.00981  0.03062  1.0000
  C   C12       1.0  0.78561  0.97513  0.06035  1.0000
  C   C13       1.0  0.74572  0.95139  0.05686  1.0000
  C   C14       1.0  0.71499  0.96226  0.02375  1.0000
  C   C15       1.0  0.72410  0.99684  0.99408  1.0000
  C   C16       1.0  0.76395  0.02063  0.99752  1.0000
  C   C17       1.0  0.96435  0.97929  0.97091  1.0000
  C   C18       1.0  0.08532  0.97826  0.96922  1.0000
  C   C19       1.0  0.12352  0.97566  0.99656  1.0000
  C   C20       1.0  0.16119  0.95054  0.97784  1.0000
  O   O4        1.0  0.15278  0.91549  0.95797  1.0000
  C   C21       1.0  0.20790  0.96959  0.98198  1.0000
  C   C22       1.0  0.21730  0.01965  0.97415  1.0000
  C   C23       1.0  0.25386  0.01587  0.00988  1.0000
  C   C24       1.0  0.22862  0.97449  0.02835  1.0000
  H   H1        1.0  0.14853  0.00202  0.10258  1.0000
  H   H2        1.0  0.08205  0.03048  0.08636  1.0000
  H   H3        1.0  0.01699  0.03565  0.03875  1.0000
  H   H4        1.0  0.01496  0.98609  0.92080  1.0000
  H   H5        1.0  0.01161  0.06705  0.91954  1.0000
  H   H6        1.0  0.98674  0.06916  0.97293  1.0000
  H   H7        1.0  0.92171  0.06936  0.92918  1.0000
  H   H8        1.0  0.94558  0.03536  0.88691  1.0000
  H   H9        1.0  0.90166  0.05179  0.01484  1.0000
  H   H10       1.0  0.83755  0.05742  0.06317  1.0000
  H   H11       1.0  0.80942  0.96599  0.08609  1.0000
  H   H12       1.0  0.73880  0.92421  0.07977  1.0000
  H   H13       1.0  0.68408  0.94360  0.02087  1.0000
  H   H14       1.0  0.70033  0.00513  0.96802  1.0000
  H   H15       1.0  0.77066  0.04730  0.97390  1.0000
  H   H16       1.0  0.95942  0.98610  0.00642  1.0000
  H   H17       1.0  0.96564  0.94319  0.96584  1.0000
  H   H18       1.0  0.08621  0.96258  0.93641  1.0000
  H   H19       1.0  0.23015  0.94959  0.96050  1.0000
  H   H20       1.0  0.19027  0.04244  0.98322  1.0000
  H   H21       1.0  0.22907  0.02835  0.94076  1.0000
  H   H22       1.0  0.28696  0.00807  0.99649  1.0000
  H   H23       1.0  0.25670  0.04451  0.03225  1.0000
  H   H24       1.0  0.25184  0.94676  0.03478  1.0000
