data_image0
_chemical_formula_structural       OC15SO2NC2OC4ONH22
_chemical_formula_sum              "O5 C21 S1 N2 H22"
_cell_length_a       30
_cell_length_b       30
_cell_length_c       30
_cell_angle_alpha    90
_cell_angle_beta     90
_cell_angle_gamma    90

_space_group_name_H-M_alt    "P 1"
_space_group_IT_number       1

loop_
  _space_group_symop_operation_xyz
  'x, y, z'

loop_
  _atom_site_type_symbol
  _atom_site_label
  _atom_site_symmetry_multiplicity
  _atom_site_fract_x
  _atom_site_fract_y
  _atom_site_fract_z
  _atom_site_occupancy
  O   O1        1.0  0.86501  0.88124  0.99435  1.0000
  C   C1        1.0  0.88610  0.91375  0.00754  1.0000
  C   C2        1.0  0.92533  0.93227  0.98233  1.0000
  C   C3        1.0  0.93347  0.98165  0.99268  1.0000
  C   C4        1.0  0.90031  0.01141  0.96785  1.0000
  C   C5        1.0  0.86500  0.03413  0.98841  1.0000
  C   C6        1.0  0.83584  0.06059  0.96343  1.0000
  C   C7        1.0  0.84144  0.06487  0.91759  1.0000
  C   C8        1.0  0.87631  0.04274  0.89656  1.0000
  C   C9        1.0  0.90545  0.01633  0.92144  1.0000
  C   C10       1.0  0.93718  0.98894  0.04366  1.0000
  C   C11       1.0  0.98285  0.97502  0.06151  1.0000
  C   C12       1.0  0.99080  0.93354  0.08174  1.0000
  C   C13       1.0  0.03333  0.92211  0.09710  1.0000
  C   C14       1.0  0.06876  0.95173  0.09233  1.0000
  C   C15       1.0  0.06131  0.99282  0.07197  1.0000
  S   S1        1.0  0.10580  0.03121  0.06507  1.0000
  O   O2        1.0  0.09107  0.07357  0.08275  1.0000
  O   O3        1.0  0.14673  0.01041  0.07995  1.0000
  N   N1        1.0  0.10913  0.03591  0.00847  1.0000
  C   C16       1.0  0.12406  0.99485  0.98411  1.0000
  C   C17       1.0  0.17196  0.99989  0.96721  1.0000
  O   O4        1.0  0.17699  0.03589  0.93614  1.0000
  C   C18       1.0  0.14751  0.07257  0.94473  1.0000
  C   C19       1.0  0.13422  0.07664  0.99384  1.0000
  C   C20       1.0  0.01882  0.00467  0.05677  1.0000
  C   C21       1.0  0.89848  0.96737  0.06857  1.0000
  O   O5        1.0  0.88725  0.97901  0.10624  1.0000
  N   N2        1.0  0.87668  0.93293  0.04786  1.0000
  H   H1        1.0  0.91943  0.92697  0.94666  1.0000
  H   H2        1.0  0.95451  0.91227  0.99147  1.0000
  H   H3        1.0  0.96603  0.99032  0.97817  1.0000
  H   H4        1.0  0.85896  0.03232  0.02406  1.0000
  H   H5        1.0  0.80864  0.07797  0.97994  1.0000
  H   H6        1.0  0.81869  0.08545  0.89833  1.0000
  H   H7        1.0  0.88086  0.04600  0.86076  1.0000
  H   H8        1.0  0.93249  0.99947  0.90407  1.0000
  H   H9        1.0  0.93407  0.02482  0.05056  1.0000
  H   H10       1.0  0.96415  0.90939  0.08642  1.0000
  H   H11       1.0  0.03869  0.89000  0.11311  1.0000
  H   H12       1.0  0.10164  0.94265  0.10463  1.0000
  H   H13       1.0  0.10119  0.99026  0.95597  1.0000
  H   H14       1.0  0.12139  0.96511  0.00502  1.0000
  H   H15       1.0  0.19509  0.00555  0.99492  1.0000
  H   H16       1.0  0.18255  0.96937  0.95024  1.0000
  H   H17       1.0  0.16439  0.10296  0.93365  1.0000
  H   H18       1.0  0.11793  0.06821  0.92373  1.0000
  H   H19       1.0  0.11278  0.10583  0.99828  1.0000
  H   H20       1.0  0.16427  0.08063  0.01424  1.0000
  H   H21       1.0  0.01392  0.03720  0.04136  1.0000
  H   H22       1.0  0.85112  0.91920  0.06502  1.0000
