data_image0
_chemical_formula_structural       OC2N2C2N2C2F3C7OH7
_chemical_formula_sum              "O2 C13 N4 F3 H7"
_cell_length_a       30
_cell_length_b       30
_cell_length_c       30
_cell_angle_alpha    90
_cell_angle_beta     90
_cell_angle_gamma    90

_space_group_name_H-M_alt    "P 1"
_space_group_IT_number       1

loop_
  _space_group_symop_operation_xyz
  'x, y, z'

loop_
  _atom_site_type_symbol
  _atom_site_label
  _atom_site_symmetry_multiplicity
  _atom_site_fract_x
  _atom_site_fract_y
  _atom_site_fract_z
  _atom_site_occupancy
  O   O1        1.0  0.86683  0.05157  0.06464  1.0000
  C   C1        1.0  0.85775  0.01963  0.04057  1.0000
  C   C2        1.0  0.88870  0.99424  0.01323  1.0000
  N   N1        1.0  0.87445  0.95710  0.99176  1.0000
  N   N2        1.0  0.91132  0.94295  0.97018  1.0000
  C   C3        1.0  0.94798  0.96783  0.97837  1.0000
  C   C4        1.0  0.93456  0.00267  0.00445  1.0000
  N   N3        1.0  0.96083  0.03653  0.01915  1.0000
  N   N4        1.0  0.98402  0.06417  0.98569  1.0000
  C   C5        1.0  0.02607  0.05136  0.97578  1.0000
  C   C6        1.0  0.04973  0.07763  0.93990  1.0000
  F   F1        1.0  0.09080  0.06060  0.93000  1.0000
  F   F2        1.0  0.02721  0.07863  0.90044  1.0000
  F   F3        1.0  0.05718  0.12091  0.95170  1.0000
  C   C7        1.0  0.05074  0.01066  0.99791  1.0000
  C   C8        1.0  0.08739  0.01889  0.02556  1.0000
  C   C9        1.0  0.11124  0.98350  0.04410  1.0000
  C   C10       1.0  0.09849  0.93971  0.03524  1.0000
  C   C11       1.0  0.06159  0.93136  0.00816  1.0000
  C   C12       1.0  0.03758  0.96678  0.98929  1.0000
  C   C13       1.0  0.99477  0.95719  0.96278  1.0000
  O   O2        1.0  0.99753  0.93266  0.93031  1.0000
  H   H1        1.0  0.82310  0.00745  0.03891  1.0000
  H   H2        1.0  0.90958  0.91537  0.95077  1.0000
  H   H3        1.0  0.94580  0.05784  0.04125  1.0000
  H   H4        1.0  0.09715  0.05305  0.03260  1.0000
  H   H5        1.0  0.13961  0.99029  0.06552  1.0000
  H   H6        1.0  0.11689  0.91215  0.04978  1.0000
  H   H7        1.0  0.05110  0.89728  0.00183  1.0000
