data_image0
_chemical_formula_structural       OC5OC3NC12H23
_chemical_formula_sum              "O2 C20 N1 H23"
_cell_length_a       30
_cell_length_b       30
_cell_length_c       30
_cell_angle_alpha    90
_cell_angle_beta     90
_cell_angle_gamma    90

_space_group_name_H-M_alt    "P 1"
_space_group_IT_number       1

loop_
  _space_group_symop_operation_xyz
  'x, y, z'

loop_
  _atom_site_type_symbol
  _atom_site_label
  _atom_site_symmetry_multiplicity
  _atom_site_fract_x
  _atom_site_fract_y
  _atom_site_fract_z
  _atom_site_occupancy
  O   O1        1.0  0.27009  0.91895  0.00567  1.0000
  C   C1        1.0  0.26551  0.95949  0.00731  1.0000
  C   C2        1.0  0.22120  0.98088  0.00677  1.0000
  C   C3        1.0  0.18264  0.95492  0.00415  1.0000
  C   C4        1.0  0.14072  0.97536  0.00368  1.0000
  C   C5        1.0  0.13728  0.02171  0.00572  1.0000
  O   O2        1.0  0.09875  0.04599  0.00581  1.0000
  C   C6        1.0  0.05738  0.02356  0.99810  1.0000
  C   C7        1.0  0.03718  0.00807  0.04223  1.0000
  C   C8        1.0  0.99437  0.98113  0.03610  1.0000
  N   N1        1.0  0.95960  0.00804  0.01506  1.0000
  C   C9        1.0  0.91756  0.98323  0.00880  1.0000
  C   C10       1.0  0.92272  0.95406  0.96677  1.0000
  C   C11       1.0  0.87798  0.93714  0.94996  1.0000
  C   C12       1.0  0.84916  0.97653  0.93594  1.0000
  C   C13       1.0  0.84509  0.01079  0.97248  1.0000
  C   C14       1.0  0.80852  0.04004  0.97170  1.0000
  C   C15       1.0  0.80262  0.07159  0.00524  1.0000
  C   C16       1.0  0.83306  0.07411  0.04006  1.0000
  C   C17       1.0  0.86982  0.04560  0.04088  1.0000
  C   C18       1.0  0.87725  0.01438  0.00657  1.0000
  C   C19       1.0  0.17615  0.04737  0.00853  1.0000
  C   C20       1.0  0.21813  0.02721  0.00900  1.0000
  H   H1        1.0  0.29456  0.98194  0.00930  1.0000
  H   H2        1.0  0.18505  0.91876  0.00254  1.0000
  H   H3        1.0  0.11158  0.95402  0.00197  1.0000
  H   H4        1.0  0.03531  0.04829  0.98273  1.0000
  H   H5        1.0  0.06062  0.99659  0.97367  1.0000
  H   H6        1.0  0.06136  0.98769  0.06053  1.0000
  H   H7        1.0  0.03104  0.03717  0.06356  1.0000
  H   H8        1.0  0.00196  0.95158  0.01604  1.0000
  H   H9        1.0  0.98309  0.96968  0.06892  1.0000
  H   H10       1.0  0.95396  0.03557  0.03405  1.0000
  H   H11       1.0  0.91128  0.96137  0.03752  1.0000
  H   H12       1.0  0.93884  0.97305  0.93990  1.0000
  H   H13       1.0  0.94443  0.92551  0.97383  1.0000
  H   H14       1.0  0.86134  0.91776  0.97614  1.0000
  H   H15       1.0  0.88293  0.91484  0.92147  1.0000
  H   H16       1.0  0.81605  0.96402  0.92678  1.0000
  H   H17       1.0  0.86347  0.99267  0.90643  1.0000
  H   H18       1.0  0.78414  0.03801  0.94493  1.0000
  H   H19       1.0  0.77406  0.09385  0.00439  1.0000
  H   H20       1.0  0.82822  0.09821  0.06666  1.0000
  H   H21       1.0  0.89262  0.04785  0.06897  1.0000
  H   H22       1.0  0.17354  0.08350  0.01029  1.0000
  H   H23       1.0  0.24775  0.04795  0.01112  1.0000
