data_image0
_chemical_formula_structural       OSOC5NC4OC8H25
_chemical_formula_sum              "O3 S1 C17 N1 H25"
_cell_length_a       30
_cell_length_b       30
_cell_length_c       30
_cell_angle_alpha    90
_cell_angle_beta     90
_cell_angle_gamma    90

_space_group_name_H-M_alt    "P 1"
_space_group_IT_number       1

loop_
  _space_group_symop_operation_xyz
  'x, y, z'

loop_
  _atom_site_type_symbol
  _atom_site_label
  _atom_site_symmetry_multiplicity
  _atom_site_fract_x
  _atom_site_fract_y
  _atom_site_fract_z
  _atom_site_occupancy
  O   O1        1.0  0.89318  0.92104  0.98026  1.0000
  S   S1        1.0  0.90188  0.94187  0.02288  1.0000
  O   O2        1.0  0.89616  0.91701  0.06389  1.0000
  C   C1        1.0  0.86886  0.99168  0.02763  1.0000
  C   C2        1.0  0.85650  0.01139  0.98253  1.0000
  C   C3        1.0  0.81667  0.98970  0.95752  1.0000
  C   C4        1.0  0.78617  0.02509  0.97876  1.0000
  C   C5        1.0  0.82782  0.05438  0.98500  1.0000
  N   N1        1.0  0.95496  0.96104  0.02235  1.0000
  C   C6        1.0  0.97312  0.97965  0.06425  1.0000
  C   C7        1.0  0.02390  0.97624  0.06339  1.0000
  C   C8        1.0  0.04346  0.99959  0.02230  1.0000
  C   C9        1.0  0.09430  0.99411  0.02087  1.0000
  O   O3        1.0  0.11123  0.02037  0.98496  1.0000
  C   C10       1.0  0.15628  0.01953  0.97803  1.0000
  C   C11       1.0  0.18742  0.99565  0.00301  1.0000
  C   C12       1.0  0.23272  0.99782  0.99221  1.0000
  C   C13       1.0  0.24706  0.02382  0.95647  1.0000
  C   C14       1.0  0.21613  0.04771  0.93144  1.0000
  C   C15       1.0  0.17092  0.04552  0.94225  1.0000
  C   C16       1.0  0.02154  0.98146  0.97964  1.0000
  C   C17       1.0  0.97081  0.98460  0.98207  1.0000
  H   H1        1.0  0.88737  0.01550  0.04808  1.0000
  H   H2        1.0  0.83904  0.98230  0.04653  1.0000
  H   H3        1.0  0.88580  0.01610  0.96128  1.0000
  H   H4        1.0  0.81912  0.99250  0.92116  1.0000
  H   H5        1.0  0.80862  0.95521  0.96607  1.0000
  H   H6        1.0  0.77082  0.01441  0.01015  1.0000
  H   H7        1.0  0.76031  0.03877  0.95705  1.0000
  H   H8        1.0  0.83369  0.07737  0.95719  1.0000
  H   H9        1.0  0.82928  0.07321  0.01617  1.0000
  H   H10       1.0  0.96088  0.96114  0.09320  1.0000
  H   H11       1.0  0.96289  0.01451  0.06793  1.0000
  H   H12       1.0  0.03754  0.99106  0.09388  1.0000
  H   H13       1.0  0.03365  0.94096  0.06331  1.0000
  H   H14       1.0  0.03585  0.03536  0.02430  1.0000
  H   H15       1.0  0.10283  0.95889  0.01592  1.0000
  H   H16       1.0  0.10854  0.00592  0.05241  1.0000
  H   H17       1.0  0.17767  0.97502  0.03106  1.0000
  H   H18       1.0  0.25685  0.97913  0.01174  1.0000
  H   H19       1.0  0.28228  0.02541  0.94814  1.0000
  H   H20       1.0  0.22709  0.06802  0.90352  1.0000
  H   H21       1.0  0.14688  0.06420  0.92261  1.0000
  H   H22       1.0  0.03326  0.00001  0.95043  1.0000
  H   H23       1.0  0.03125  0.94652  0.97475  1.0000
  H   H24       1.0  0.96050  0.01961  0.98333  1.0000
  H   H25       1.0  0.95688  0.96960  0.95188  1.0000
