data_image0
_chemical_formula_structural       OSOC4OCF2CF2C2NC2SC2H13
_chemical_formula_sum              "O3 S2 C12 F4 N1 H13"
_cell_length_a       30
_cell_length_b       30
_cell_length_c       30
_cell_angle_alpha    90
_cell_angle_beta     90
_cell_angle_gamma    90

_space_group_name_H-M_alt    "P 1"
_space_group_IT_number       1

loop_
  _space_group_symop_operation_xyz
  'x, y, z'

loop_
  _atom_site_type_symbol
  _atom_site_label
  _atom_site_symmetry_multiplicity
  _atom_site_fract_x
  _atom_site_fract_y
  _atom_site_fract_z
  _atom_site_occupancy
  O   O1        1.0  0.93620  0.90674  0.97593  1.0000
  S   S1        1.0  0.94564  0.94391  0.00518  1.0000
  O   O2        1.0  0.94117  0.93975  0.05304  1.0000
  C   C1        1.0  0.00042  0.96249  0.99279  1.0000
  C   C2        1.0  0.01335  0.96663  0.94830  1.0000
  C   C3        1.0  0.05642  0.98117  0.93837  1.0000
  C   C4        1.0  0.08664  0.99140  0.97245  1.0000
  O   O3        1.0  0.12747  0.00515  0.95777  1.0000
  C   C5        1.0  0.16024  0.01789  0.98997  1.0000
  F   F1        1.0  0.14371  0.05098  0.01604  1.0000
  F   F2        1.0  0.16892  0.98226  0.01666  1.0000
  C   C6        1.0  0.20305  0.03267  0.96664  1.0000
  F   F3        1.0  0.19588  0.06914  0.94062  1.0000
  F   F4        1.0  0.23487  0.04457  0.99668  1.0000
  C   C7        1.0  0.07336  0.98674  0.01685  1.0000
  C   C8        1.0  0.03027  0.97217  0.02714  1.0000
  N   N1        1.0  0.91327  0.98808  0.98894  1.0000
  C   C9        1.0  0.92338  0.03114  0.01221  1.0000
  C   C10       1.0  0.88730  0.06638  0.00531  1.0000
  S   S2        1.0  0.83514  0.05161  0.03290  1.0000
  C   C11       1.0  0.83836  0.99105  0.02728  1.0000
  C   C12       1.0  0.86459  0.97701  0.98603  1.0000
  H   H1        1.0  0.99024  0.95862  0.92152  1.0000
  H   H2        1.0  0.06649  0.98446  0.90368  1.0000
  H   H3        1.0  0.21653  0.00617  0.94554  1.0000
  H   H4        1.0  0.09570  0.99399  0.04443  1.0000
  H   H5        1.0  0.02049  0.96845  0.06188  1.0000
  H   H6        1.0  0.92871  0.02565  0.04794  1.0000
  H   H7        1.0  0.95449  0.04426  0.99825  1.0000
  H   H8        1.0  0.88062  0.07134  0.96976  1.0000
  H   H9        1.0  0.89838  0.09835  0.01897  1.0000
  H   H10       1.0  0.85334  0.97742  0.05763  1.0000
  H   H11       1.0  0.80420  0.97840  0.02520  1.0000
  H   H12       1.0  0.85118  0.99280  0.95588  1.0000
  H   H13       1.0  0.86002  0.94115  0.98086  1.0000
