data_image0
_chemical_formula_structural       OC2NCNC6NC5ClC2H16
_chemical_formula_sum              "O1 C16 N3 Cl1 H16"
_cell_length_a       30
_cell_length_b       30
_cell_length_c       30
_cell_angle_alpha    90
_cell_angle_beta     90
_cell_angle_gamma    90

_space_group_name_H-M_alt    "P 1"
_space_group_IT_number       1

loop_
  _space_group_symop_operation_xyz
  'x, y, z'

loop_
  _atom_site_type_symbol
  _atom_site_label
  _atom_site_symmetry_multiplicity
  _atom_site_fract_x
  _atom_site_fract_y
  _atom_site_fract_z
  _atom_site_occupancy
  O   O1        1.0  0.99051  0.91986  0.01584  1.0000
  C   C1        1.0  0.99070  0.96337  0.99763  1.0000
  C   C2        1.0  0.96703  0.99578  0.02958  1.0000
  N   N1        1.0  0.91888  0.99122  0.02758  1.0000
  C   C3        1.0  0.89449  0.96073  0.05110  1.0000
  N   N2        1.0  0.85161  0.96493  0.04339  1.0000
  C   C4        1.0  0.84812  0.99927  0.01334  1.0000
  C   C5        1.0  0.80995  0.01763  0.99354  1.0000
  C   C6        1.0  0.81498  0.05290  0.96341  1.0000
  C   C7        1.0  0.85719  0.06960  0.95318  1.0000
  C   C8        1.0  0.89570  0.05176  0.97260  1.0000
  C   C9        1.0  0.88994  0.01652  0.00267  1.0000
  N   N3        1.0  0.03659  0.97445  0.98648  1.0000
  C   C10       1.0  0.06614  0.97799  0.02511  1.0000
  C   C11       1.0  0.11282  0.98991  0.01027  1.0000
  C   C12       1.0  0.13947  0.95815  0.98857  1.0000
  C   C13       1.0  0.18247  0.96902  0.97442  1.0000
  C   C14       1.0  0.19902  0.01176  0.98178  1.0000
  Cl  Cl1       1.0  0.25197  0.02523  0.96435  1.0000
  C   C15       1.0  0.17294  0.04373  0.00311  1.0000
  C   C16       1.0  0.12991  0.03287  0.01725  1.0000
  H   H1        1.0  0.01036  0.90322  0.99629  1.0000
  H   H2        1.0  0.97206  0.96169  0.96624  1.0000
  H   H3        1.0  0.97493  0.03048  0.02136  1.0000
  H   H4        1.0  0.97672  0.98984  0.06433  1.0000
  H   H5        1.0  0.90961  0.93636  0.07303  1.0000
  H   H6        1.0  0.77730  0.00442  0.00165  1.0000
  H   H7        1.0  0.78560  0.06735  0.94786  1.0000
  H   H8        1.0  0.86020  0.09703  0.92964  1.0000
  H   H9        1.0  0.92831  0.06499  0.96441  1.0000
  H   H10       1.0  0.03737  0.00393  0.96959  1.0000
  H   H11       1.0  0.06770  0.94643  0.04349  1.0000
  H   H12       1.0  0.05426  0.00342  0.04849  1.0000
  H   H13       1.0  0.12661  0.92479  0.98244  1.0000
  H   H14       1.0  0.20272  0.94410  0.95766  1.0000
  H   H15       1.0  0.18588  0.07708  0.00879  1.0000
  H   H16       1.0  0.10994  0.05820  0.03382  1.0000
