data_image0
_chemical_formula_structural       OC2NC3NC3OC12OH28
_chemical_formula_sum              "O3 C20 N2 H28"
_cell_length_a       30
_cell_length_b       30
_cell_length_c       30
_cell_angle_alpha    90
_cell_angle_beta     90
_cell_angle_gamma    90

_space_group_name_H-M_alt    "P 1"
_space_group_IT_number       1

loop_
  _space_group_symop_operation_xyz
  'x, y, z'

loop_
  _atom_site_type_symbol
  _atom_site_label
  _atom_site_symmetry_multiplicity
  _atom_site_fract_x
  _atom_site_fract_y
  _atom_site_fract_z
  _atom_site_occupancy
  O   O1        1.0  0.07466  0.95230  0.05872  1.0000
  C   C1        1.0  0.08644  0.95013  0.01247  1.0000
  C   C2        1.0  0.10450  0.99586  0.99692  1.0000
  N   N1        1.0  0.07600  0.03373  0.00970  1.0000
  C   C3        1.0  0.04697  0.05073  0.97409  1.0000
  C   C4        1.0  0.00873  0.01903  0.96020  1.0000
  C   C5        1.0  0.97477  0.00896  0.99704  1.0000
  N   N2        1.0  0.94200  0.97645  0.98047  1.0000
  C   C6        1.0  0.90649  0.96767  0.01326  1.0000
  C   C7        1.0  0.88459  0.92269  0.00202  1.0000
  C   C8        1.0  0.83891  0.91978  0.02381  1.0000
  O   O2        1.0  0.80871  0.95320  0.00845  1.0000
  C   C9        1.0  0.82927  0.99197  0.98996  1.0000
  C   C10       1.0  0.87140  0.00505  0.01491  1.0000
  C   C11       1.0  0.02906  0.09731  0.98456  1.0000
  C   C12       1.0  0.02309  0.11307  0.02824  1.0000
  C   C13       1.0  0.00570  0.15555  0.03617  1.0000
  C   C14       1.0  0.99391  0.18297  0.00062  1.0000
  C   C15       1.0  0.99955  0.16798  0.95708  1.0000
  C   C16       1.0  0.01694  0.12554  0.94912  1.0000
  C   C17       1.0  0.12018  0.91412  0.00726  1.0000
  C   C18       1.0  0.12442  0.87869  0.97825  1.0000
  C   C19       1.0  0.16410  0.85622  0.99040  1.0000
  C   C20       1.0  0.18149  0.87924  0.02601  1.0000
  O   O3        1.0  0.15507  0.91444  0.03655  1.0000
  H   H1        1.0  0.10290  0.95175  0.07489  1.0000
  H   H2        1.0  0.05616  0.94130  0.99422  1.0000
  H   H3        1.0  0.11179  0.99545  0.96109  1.0000
  H   H4        1.0  0.13652  0.00183  0.01358  1.0000
  H   H5        1.0  0.05777  0.02460  0.03696  1.0000
  H   H6        1.0  0.06840  0.05528  0.94470  1.0000
  H   H7        1.0  0.02305  0.98784  0.94762  1.0000
  H   H8        1.0  0.99092  0.03355  0.93167  1.0000
  H   H9        1.0  0.99149  0.99524  0.02643  1.0000
  H   H10       1.0  0.95812  0.03985  0.00694  1.0000
  H   H11       1.0  0.95834  0.94741  0.97364  1.0000
  H   H12       1.0  0.92159  0.96451  0.04648  1.0000
  H   H13       1.0  0.90588  0.89518  0.01321  1.0000
  H   H14       1.0  0.88059  0.91914  0.96580  1.0000
  H   H15       1.0  0.82370  0.88731  0.01704  1.0000
  H   H16       1.0  0.84173  0.92297  0.06010  1.0000
  H   H17       1.0  0.83618  0.98589  0.95459  1.0000
  H   H18       1.0  0.80483  0.01902  0.99157  1.0000
  H   H19       1.0  0.86286  0.01101  0.05000  1.0000
  H   H20       1.0  0.88416  0.03668  0.00189  1.0000
  H   H21       1.0  0.03206  0.09258  0.05673  1.0000
  H   H22       1.0  0.00144  0.16721  0.07021  1.0000
  H   H23       1.0  0.98043  0.21600  0.00687  1.0000
  H   H24       1.0  0.99042  0.18931  0.92926  1.0000
  H   H25       1.0  0.02099  0.11449  0.91482  1.0000
  H   H26       1.0  0.10164  0.87006  0.95168  1.0000
  H   H27       1.0  0.17829  0.82680  0.97519  1.0000
  H   H28       1.0  0.21083  0.87506  0.04653  1.0000
