data_image0
_chemical_formula_structural       OC11NC4NC2N2H26
_chemical_formula_sum              "O1 C17 N4 H26"
_cell_length_a       30
_cell_length_b       30
_cell_length_c       30
_cell_angle_alpha    90
_cell_angle_beta     90
_cell_angle_gamma    90

_space_group_name_H-M_alt    "P 1"
_space_group_IT_number       1

loop_
  _space_group_symop_operation_xyz
  'x, y, z'

loop_
  _atom_site_type_symbol
  _atom_site_label
  _atom_site_symmetry_multiplicity
  _atom_site_fract_x
  _atom_site_fract_y
  _atom_site_fract_z
  _atom_site_occupancy
  O   O1        1.0  0.94488  0.91728  0.98290  1.0000
  C   C1        1.0  0.94943  0.96420  0.97336  1.0000
  C   C2        1.0  0.90084  0.97995  0.96483  1.0000
  C   C3        1.0  0.89304  0.03027  0.96576  1.0000
  C   C4        1.0  0.89972  0.05278  0.01101  1.0000
  C   C5        1.0  0.89986  0.02087  0.05049  1.0000
  C   C6        1.0  0.94181  0.99180  0.05503  1.0000
  C   C7        1.0  0.97328  0.98748  0.01402  1.0000
  C   C8        1.0  0.01846  0.96315  0.02644  1.0000
  C   C9        1.0  0.03647  0.97083  0.07409  1.0000
  C   C10       1.0  0.05181  0.01876  0.08150  1.0000
  C   C11       1.0  0.08856  0.03067  0.04870  1.0000
  N   N1        1.0  0.07509  0.01984  0.00322  1.0000
  C   C12       1.0  0.10463  0.03834  0.96834  1.0000
  C   C13       1.0  0.10446  0.08737  0.95762  1.0000
  C   C14       1.0  0.08559  0.05468  0.92488  1.0000
  C   C15       1.0  0.05664  0.97780  0.99458  1.0000
  N   N2        1.0  0.07151  0.95342  0.96164  1.0000
  C   C16       1.0  0.04993  0.91481  0.95108  1.0000
  C   C17       1.0  0.01342  0.91345  0.92531  1.0000
  N   N3        1.0  0.99324  0.95028  0.90760  1.0000
  N   N4        1.0  0.97279  0.97754  0.93171  1.0000
  H   H1        1.0  0.92515  0.91426  0.00837  1.0000
  H   H2        1.0  0.87760  0.96336  0.98770  1.0000
  H   H3        1.0  0.89044  0.96759  0.93190  1.0000
  H   H4        1.0  0.85847  0.03613  0.95527  1.0000
  H   H5        1.0  0.91380  0.04698  0.94074  1.0000
  H   H6        1.0  0.93046  0.07254  0.01080  1.0000
  H   H7        1.0  0.87288  0.07719  0.01566  1.0000
  H   H8        1.0  0.87002  0.99975  0.04986  1.0000
  H   H9        1.0  0.89652  0.04061  0.08117  1.0000
  H   H10       1.0  0.93213  0.95864  0.06700  1.0000
  H   H11       1.0  0.96018  0.00691  0.08263  1.0000
  H   H12       1.0  0.98229  0.02140  0.00371  1.0000
  H   H13       1.0  0.01340  0.92710  0.02426  1.0000
  H   H14       1.0  0.06517  0.94869  0.07938  1.0000
  H   H15       1.0  0.01202  0.96104  0.09933  1.0000
  H   H16       1.0  0.06413  0.02270  0.11566  1.0000
  H   H17       1.0  0.02400  0.04204  0.07746  1.0000
  H   H18       1.0  0.09608  0.06630  0.05168  1.0000
  H   H19       1.0  0.11911  0.01238  0.05700  1.0000
  H   H20       1.0  0.13640  0.02097  0.96647  1.0000
  H   H21       1.0  0.08113  0.10873  0.97500  1.0000
  H   H22       1.0  0.13597  0.10299  0.94954  1.0000
  H   H23       1.0  0.10428  0.04728  0.89489  1.0000
  H   H24       1.0  0.04974  0.05305  0.92066  1.0000
  H   H25       1.0  0.06475  0.88407  0.96311  1.0000
  H   H26       1.0  0.99843  0.88173  0.91668  1.0000
