data_image0
_chemical_formula_structural       OC4NC11FC3FH19
_chemical_formula_sum              "O1 C18 N1 F2 H19"
_cell_length_a       30
_cell_length_b       30
_cell_length_c       30
_cell_angle_alpha    90
_cell_angle_beta     90
_cell_angle_gamma    90

_space_group_name_H-M_alt    "P 1"
_space_group_IT_number       1

loop_
  _space_group_symop_operation_xyz
  'x, y, z'

loop_
  _atom_site_type_symbol
  _atom_site_label
  _atom_site_symmetry_multiplicity
  _atom_site_fract_x
  _atom_site_fract_y
  _atom_site_fract_z
  _atom_site_occupancy
  O   O1        1.0  0.19761  0.07996  0.00895  1.0000
  C   C1        1.0  0.17089  0.04492  0.99745  1.0000
  C   C2        1.0  0.12501  0.05128  0.99683  1.0000
  C   C3        1.0  0.09682  0.01584  0.98507  1.0000
  C   C4        1.0  0.04680  0.02195  0.98448  1.0000
  N   N1        1.0  0.02627  0.99720  0.02125  1.0000
  C   C5        1.0  0.97769  0.00431  0.02303  1.0000
  C   C6        1.0  0.95975  0.98506  0.06698  1.0000
  C   C7        1.0  0.95340  0.93523  0.05870  1.0000
  C   C8        1.0  0.95226  0.92919  0.00807  1.0000
  C   C9        1.0  0.95207  0.97634  0.98789  1.0000
  C   C10       1.0  0.90679  0.99672  0.97760  1.0000
  C   C11       1.0  0.86632  0.98048  0.99441  1.0000
  C   C12       1.0  0.82598  0.00125  0.98357  1.0000
  C   C13       1.0  0.82540  0.03856  0.95588  1.0000
  C   C14       1.0  0.86526  0.05524  0.93901  1.0000
  C   C15       1.0  0.90526  0.03442  0.94993  1.0000
  F   F1        1.0  0.94328  0.05135  0.93354  1.0000
  C   C16       1.0  0.11561  0.97421  0.97433  1.0000
  C   C17       1.0  0.16175  0.96813  0.97503  1.0000
  C   C18       1.0  0.18907  0.00365  0.98658  1.0000
  F   F2        1.0  0.23345  0.99828  0.98743  1.0000
  H   H1        1.0  0.22826  0.06918  0.00747  1.0000
  H   H2        1.0  0.11145  0.08373  0.00551  1.0000
  H   H3        1.0  0.03877  0.05753  0.98703  1.0000
  H   H4        1.0  0.03443  0.01050  0.95208  1.0000
  H   H5        1.0  0.04026  0.00830  0.05020  1.0000
  H   H6        1.0  0.97032  0.04008  0.02154  1.0000
  H   H7        1.0  0.98148  0.99144  0.09563  1.0000
  H   H8        1.0  0.92746  0.00034  0.07483  1.0000
  H   H9        1.0  0.92262  0.92336  0.07432  1.0000
  H   H10       1.0  0.98097  0.91603  0.07303  1.0000
  H   H11       1.0  0.92455  0.90815  0.99713  1.0000
  H   H12       1.0  0.98288  0.91191  0.99788  1.0000
  H   H13       1.0  0.96984  0.97472  0.95596  1.0000
  H   H14       1.0  0.86527  0.95166  0.01632  1.0000
  H   H15       1.0  0.79488  0.98820  0.99688  1.0000
  H   H16       1.0  0.79399  0.05457  0.94755  1.0000
  H   H17       1.0  0.86553  0.08431  0.91748  1.0000
  H   H18       1.0  0.09397  0.94639  0.96570  1.0000
  H   H19       1.0  0.17630  0.93606  0.96682  1.0000
