data_image0
_chemical_formula_structural       OC9NC2NC2SCNC7H27
_chemical_formula_sum              "O1 C21 N3 S1 H27"
_cell_length_a       30
_cell_length_b       30
_cell_length_c       30
_cell_angle_alpha    90
_cell_angle_beta     90
_cell_angle_gamma    90

_space_group_name_H-M_alt    "P 1"
_space_group_IT_number       1

loop_
  _space_group_symop_operation_xyz
  'x, y, z'

loop_
  _atom_site_type_symbol
  _atom_site_label
  _atom_site_symmetry_multiplicity
  _atom_site_fract_x
  _atom_site_fract_y
  _atom_site_fract_z
  _atom_site_occupancy
  O   O1        1.0  0.94619  0.89626  0.05666  1.0000
  C   C1        1.0  0.97114  0.92339  0.02910  1.0000
  C   C2        1.0  0.01602  0.92323  0.03042  1.0000
  C   C3        1.0  0.04591  0.95180  0.00143  1.0000
  C   C4        1.0  0.09337  0.93365  0.99837  1.0000
  C   C5        1.0  0.11079  0.92051  0.95694  1.0000
  C   C6        1.0  0.15424  0.90416  0.95350  1.0000
  C   C7        1.0  0.18093  0.90072  0.99135  1.0000
  C   C8        1.0  0.16424  0.91359  0.03271  1.0000
  C   C9        1.0  0.12081  0.92995  0.03624  1.0000
  N   N1        1.0  0.04527  0.99745  0.01875  1.0000
  C   C10       1.0  0.03892  0.03186  0.98402  1.0000
  C   C11       1.0  0.04851  0.07839  0.00223  1.0000
  N   N2        1.0  0.07994  0.10463  0.98598  1.0000
  C   C12       1.0  0.08095  0.14423  0.00939  1.0000
  C   C13       1.0  0.05057  0.14787  0.04358  1.0000
  S   S1        1.0  0.01958  0.10010  0.04696  1.0000
  C   C14       1.0  0.99402  0.03178  0.95679  1.0000
  N   N3        1.0  0.95001  0.03567  0.97930  1.0000
  C   C15       1.0  0.91410  0.04050  0.94635  1.0000
  C   C16       1.0  0.87733  0.07116  0.96371  1.0000
  C   C17       1.0  0.84113  0.04905  0.99163  1.0000
  C   C18       1.0  0.85440  0.00759  0.01768  1.0000
  C   C19       1.0  0.89887  0.01123  0.04208  1.0000
  C   C20       1.0  0.94144  0.00193  0.01427  1.0000
  C   C21       1.0  0.94368  0.95249  0.99840  1.0000
  H   H1        1.0  0.96624  0.87977  0.07607  1.0000
  H   H2        1.0  0.03269  0.90122  0.05382  1.0000
  H   H3        1.0  0.03222  0.95042  0.96761  1.0000
  H   H4        1.0  0.09064  0.92292  0.92689  1.0000
  H   H5        1.0  0.16731  0.89415  0.92122  1.0000
  H   H6        1.0  0.21476  0.88805  0.98859  1.0000
  H   H7        1.0  0.18506  0.91097  0.06224  1.0000
  H   H8        1.0  0.10842  0.93987  0.06886  1.0000
  H   H9        1.0  0.07468  0.00399  0.03438  1.0000
  H   H10       1.0  0.06528  0.02621  0.95912  1.0000
  H   H11       1.0  0.10482  0.16964  0.00002  1.0000
  H   H12       1.0  0.04531  0.17543  0.06614  1.0000
  H   H13       1.0  0.99678  0.06033  0.93393  1.0000
  H   H14       1.0  0.99381  0.00252  0.93490  1.0000
  H   H15       1.0  0.90111  0.00832  0.93490  1.0000
  H   H16       1.0  0.92720  0.05699  0.91640  1.0000
  H   H17       1.0  0.89230  0.09851  0.98292  1.0000
  H   H18       1.0  0.86111  0.08742  0.93521  1.0000
  H   H19       1.0  0.82763  0.07401  0.01471  1.0000
  H   H20       1.0  0.81326  0.03999  0.96971  1.0000
  H   H21       1.0  0.85375  0.97870  0.99544  1.0000
  H   H22       1.0  0.82816  0.00134  0.04241  1.0000
  H   H23       1.0  0.90153  0.04421  0.05774  1.0000
  H   H24       1.0  0.89836  0.98725  0.06974  1.0000
  H   H25       1.0  0.96752  0.00701  0.03924  1.0000
  H   H26       1.0  0.95734  0.94962  0.96468  1.0000
  H   H27       1.0  0.91034  0.93797  0.99531  1.0000
