data_image0
_chemical_formula_structural       OCNCNC2ClC2ClC6SC2NH9
_chemical_formula_sum              "O1 C14 N3 Cl2 S1 H9"
_cell_length_a       30
_cell_length_b       30
_cell_length_c       30
_cell_angle_alpha    90
_cell_angle_beta     90
_cell_angle_gamma    90

_space_group_name_H-M_alt    "P 1"
_space_group_IT_number       1

loop_
  _space_group_symop_operation_xyz
  'x, y, z'

loop_
  _atom_site_type_symbol
  _atom_site_label
  _atom_site_symmetry_multiplicity
  _atom_site_fract_x
  _atom_site_fract_y
  _atom_site_fract_z
  _atom_site_occupancy
  O   O1        1.0  0.92141  0.11792  0.04719  1.0000
  C   C1        1.0  0.95159  0.08774  0.03495  1.0000
  N   N1        1.0  0.99295  0.09762  0.03856  1.0000
  C   C2        1.0  0.02062  0.06352  0.02667  1.0000
  N   N2        1.0  0.06050  0.05905  0.04296  1.0000
  C   C3        1.0  0.07693  0.01850  0.02573  1.0000
  C   C4        1.0  0.11805  0.99876  0.03383  1.0000
  Cl  Cl1       1.0  0.15691  0.02332  0.06808  1.0000
  C   C5        1.0  0.12782  0.95790  0.01368  1.0000
  C   C6        1.0  0.09645  0.93748  0.98567  1.0000
  Cl  Cl2       1.0  0.10921  0.88728  0.96095  1.0000
  C   C7        1.0  0.05506  0.95710  0.97731  1.0000
  C   C8        1.0  0.04577  0.99736  0.99793  1.0000
  C   C9        1.0  0.00567  0.02685  0.99479  1.0000
  C   C10       1.0  0.96115  0.01052  0.01402  1.0000
  C   C11       1.0  0.94007  0.97488  0.98525  1.0000
  C   C12       1.0  0.93613  0.93047  0.99713  1.0000
  S   S1        1.0  0.91114  0.89886  0.95683  1.0000
  C   C13       1.0  0.90443  0.94408  0.92294  1.0000
  C   C14       1.0  0.92109  0.98241  0.94191  1.0000
  N   N3        1.0  0.93295  0.04959  0.02007  1.0000
  H   H1        1.0  0.93766  0.14409  0.05733  1.0000
  H   H2        1.0  0.15983  0.94200  0.01965  1.0000
  H   H3        1.0  0.03128  0.94131  0.95506  1.0000
  H   H4        1.0  0.00253  0.04112  0.96127  1.0000
  H   H5        1.0  0.96682  0.99611  0.04727  1.0000
  H   H6        1.0  0.94697  0.91466  0.02769  1.0000
  H   H7        1.0  0.88852  0.94046  0.89078  1.0000
  H   H8        1.0  0.91970  0.01460  0.92551  1.0000
  H   H9        1.0  0.90078  0.04444  0.02901  1.0000
