data_image0
_chemical_formula_structural       OC3NC6NC6NCN2C5OH25
_chemical_formula_sum              "O2 C21 N5 H25"
_cell_length_a       30
_cell_length_b       30
_cell_length_c       30
_cell_angle_alpha    90
_cell_angle_beta     90
_cell_angle_gamma    90

_space_group_name_H-M_alt    "P 1"
_space_group_IT_number       1

loop_
  _space_group_symop_operation_xyz
  'x, y, z'

loop_
  _atom_site_type_symbol
  _atom_site_label
  _atom_site_symmetry_multiplicity
  _atom_site_fract_x
  _atom_site_fract_y
  _atom_site_fract_z
  _atom_site_occupancy
  O   O1        1.0  0.05423  0.96928  0.06638  1.0000
  C   C1        1.0  0.06177  0.97451  0.02298  1.0000
  C   C2        1.0  0.03564  0.96623  0.98589  1.0000
  C   C3        1.0  0.98983  0.94697  0.98330  1.0000
  N   N1        1.0  0.95783  0.98066  0.96816  1.0000
  C   C4        1.0  0.94932  0.01494  0.00255  1.0000
  C   C5        1.0  0.91475  0.05014  0.99043  1.0000
  C   C6        1.0  0.87462  0.05236  0.01383  1.0000
  C   C7        1.0  0.84335  0.08454  0.00197  1.0000
  C   C8        1.0  0.85284  0.11365  0.96722  1.0000
  C   C9        1.0  0.89339  0.10932  0.94565  1.0000
  N   N2        1.0  0.92429  0.07840  0.95634  1.0000
  C   C10       1.0  0.91682  0.95993  0.95051  1.0000
  C   C11       1.0  0.88399  0.93863  0.98307  1.0000
  C   C12       1.0  0.83927  0.93522  0.97062  1.0000
  C   C13       1.0  0.80919  0.91467  0.99938  1.0000
  C   C14       1.0  0.82437  0.89770  0.03968  1.0000
  C   C15       1.0  0.86919  0.90204  0.04955  1.0000
  N   N3        1.0  0.89913  0.92192  0.02236  1.0000
  C   C16       1.0  0.06266  0.97952  0.94964  1.0000
  N   N4        1.0  0.10258  0.99449  0.96216  1.0000
  N   N5        1.0  0.10167  0.99091  0.00717  1.0000
  C   C17       1.0  0.13987  0.00517  0.03414  1.0000
  C   C18       1.0  0.15097  0.05480  0.02721  1.0000
  C   C19       1.0  0.18685  0.06147  0.99188  1.0000
  C   C20       1.0  0.22804  0.03306  0.00138  1.0000
  C   C21       1.0  0.21869  0.99526  0.03400  1.0000
  O   O2        1.0  0.17659  0.97560  0.02508  1.0000
  H   H1        1.0  0.02453  0.95662  0.06970  1.0000
  H   H2        1.0  0.99138  0.91928  0.95940  1.0000
  H   H3        1.0  0.98061  0.93239  0.01545  1.0000
  H   H4        1.0  0.94026  0.99957  0.03447  1.0000
  H   H5        1.0  0.98017  0.03354  0.00896  1.0000
  H   H6        1.0  0.86761  0.02923  0.04077  1.0000
  H   H7        1.0  0.81188  0.08687  0.01972  1.0000
  H   H8        1.0  0.82926  0.13914  0.95719  1.0000
  H   H9        1.0  0.90247  0.13127  0.91832  1.0000
  H   H10       1.0  0.92581  0.93438  0.92588  1.0000
  H   H11       1.0  0.89898  0.98529  0.93110  1.0000
  H   H12       1.0  0.82783  0.94842  0.93892  1.0000
  H   H13       1.0  0.77426  0.91178  0.99028  1.0000
  H   H14       1.0  0.80184  0.88134  0.06272  1.0000
  H   H15       1.0  0.88273  0.88912  0.08054  1.0000
  H   H16       1.0  0.05454  0.97873  0.91449  1.0000
  H   H17       1.0  0.13048  0.00022  0.06911  1.0000
  H   H18       1.0  0.16376  0.06827  0.05876  1.0000
  H   H19       1.0  0.12110  0.07431  0.01928  1.0000
  H   H20       1.0  0.17350  0.05267  0.95901  1.0000
  H   H21       1.0  0.19624  0.09674  0.98994  1.0000
  H   H22       1.0  0.25519  0.05377  0.01439  1.0000
  H   H23       1.0  0.23991  0.01920  0.96968  1.0000
  H   H24       1.0  0.21963  0.00696  0.06862  1.0000
  H   H25       1.0  0.24431  0.96949  0.03073  1.0000
