data_image0
_chemical_formula_structural       OC7NC3F3C2H16
_chemical_formula_sum              "O1 C12 N1 F3 H16"
_cell_length_a       30
_cell_length_b       30
_cell_length_c       30
_cell_angle_alpha    90
_cell_angle_beta     90
_cell_angle_gamma    90

_space_group_name_H-M_alt    "P 1"
_space_group_IT_number       1

loop_
  _space_group_symop_operation_xyz
  'x, y, z'

loop_
  _atom_site_type_symbol
  _atom_site_label
  _atom_site_symmetry_multiplicity
  _atom_site_fract_x
  _atom_site_fract_y
  _atom_site_fract_z
  _atom_site_occupancy
  O   O1        1.0  0.19459  0.98494  0.01665  1.0000
  C   C1        1.0  0.15211  0.99648  0.00531  1.0000
  C   C2        1.0  0.13982  0.99261  0.96083  1.0000
  C   C3        1.0  0.09668  0.00405  0.94774  1.0000
  C   C4        1.0  0.06574  0.01946  0.97919  1.0000
  C   C5        1.0  0.01891  0.03146  0.96524  1.0000
  C   C6        1.0  0.98877  0.99087  0.95786  1.0000
  C   C7        1.0  0.97839  0.96397  0.00010  1.0000
  N   N1        1.0  0.95789  0.98922  0.03652  1.0000
  C   C8        1.0  0.91407  0.00854  0.02680  1.0000
  C   C9        1.0  0.87740  0.97413  0.01947  1.0000
  C   C10       1.0  0.83297  0.99690  0.01289  1.0000
  F   F1        1.0  0.80047  0.96641  0.00624  1.0000
  F   F2        1.0  0.83362  0.02415  0.97710  1.0000
  F   F3        1.0  0.82151  0.02138  0.04884  1.0000
  C   C11       1.0  0.07874  0.02306  0.02394  1.0000
  C   C12       1.0  0.12191  0.01161  0.03706  1.0000
  H   H1        1.0  0.19839  0.98991  0.04840  1.0000
  H   H2        1.0  0.16376  0.98075  0.93640  1.0000
  H   H3        1.0  0.08737  0.00095  0.91284  1.0000
  H   H4        1.0  0.00401  0.05434  0.98956  1.0000
  H   H5        1.0  0.02087  0.05052  0.93405  1.0000
  H   H6        1.0  0.95754  0.00212  0.94255  1.0000
  H   H7        1.0  0.00425  0.96838  0.93351  1.0000
  H   H8        1.0  0.00951  0.94963  0.01280  1.0000
  H   H9        1.0  0.95753  0.93531  0.99128  1.0000
  H   H10       1.0  0.95583  0.96923  0.06397  1.0000
  H   H11       1.0  0.90517  0.02939  0.05549  1.0000
  H   H12       1.0  0.91620  0.03145  0.99844  1.0000
  H   H13       1.0  0.87530  0.95162  0.04817  1.0000
  H   H14       1.0  0.88449  0.95372  0.99005  1.0000
  H   H15       1.0  0.05502  0.03462  0.04885  1.0000
  H   H16       1.0  0.13116  0.01466  0.07189  1.0000
