data_image0
_chemical_formula_structural       OC6NC6NH18
_chemical_formula_sum              "O1 C12 N2 H18"
_cell_length_a       30
_cell_length_b       30
_cell_length_c       30
_cell_angle_alpha    90
_cell_angle_beta     90
_cell_angle_gamma    90

_space_group_name_H-M_alt    "P 1"
_space_group_IT_number       1

loop_
  _space_group_symop_operation_xyz
  'x, y, z'

loop_
  _atom_site_type_symbol
  _atom_site_label
  _atom_site_symmetry_multiplicity
  _atom_site_fract_x
  _atom_site_fract_y
  _atom_site_fract_z
  _atom_site_occupancy
  O   O1        1.0  0.01670  0.09977  0.07334  1.0000
  C   C1        1.0  0.02476  0.08402  0.02961  1.0000
  C   C2        1.0  0.05168  0.04273  0.03400  1.0000
  C   C3        1.0  0.04155  0.00465  0.01268  1.0000
  C   C4        1.0  0.06895  0.96388  0.01717  1.0000
  C   C5        1.0  0.11925  0.96682  0.01907  1.0000
  C   C6        1.0  0.09710  0.94871  0.97822  1.0000
  N   N1        1.0  0.00279  0.00380  0.98647  1.0000
  C   C7        1.0  0.98633  0.96272  0.96533  1.0000
  C   C8        1.0  0.94897  0.94112  0.99247  1.0000
  C   C9        1.0  0.91494  0.97298  0.01311  1.0000
  C   C10       1.0  0.89690  0.00909  0.98203  1.0000
  C   C11       1.0  0.93139  0.03959  0.96010  1.0000
  C   C12       1.0  0.97557  0.04180  0.98540  1.0000
  N   N2        1.0  0.98347  0.07941  0.00471  1.0000
  H   H1        1.0  0.98521  0.10728  0.07180  1.0000
  H   H2        1.0  0.04523  0.10928  0.01299  1.0000
  H   H3        1.0  0.08073  0.04480  0.05540  1.0000
  H   H4        1.0  0.05376  0.93836  0.03790  1.0000
  H   H5        1.0  0.13657  0.94364  0.04072  1.0000
  H   H6        1.0  0.13559  0.99891  0.01614  1.0000
  H   H7        1.0  0.09787  0.96905  0.94835  1.0000
  H   H8        1.0  0.09959  0.91322  0.97199  1.0000
  H   H9        1.0  0.01267  0.93803  0.96024  1.0000
  H   H10       1.0  0.97473  0.96981  0.93143  1.0000
  H   H11       1.0  0.93160  0.91711  0.97105  1.0000
  H   H12       1.0  0.96382  0.92157  0.01959  1.0000
  H   H13       1.0  0.88683  0.95326  0.02572  1.0000
  H   H14       1.0  0.92965  0.98881  0.04264  1.0000
  H   H15       1.0  0.87652  0.99367  0.95587  1.0000
  H   H16       1.0  0.87394  0.02991  0.00149  1.0000
  H   H17       1.0  0.91736  0.07325  0.95715  1.0000
  H   H18       1.0  0.93797  0.02895  0.92581  1.0000
