data_image0
_chemical_formula_structural       OC7SCNC10OH19
_chemical_formula_sum              "O2 C18 S1 N1 H19"
_cell_length_a       30
_cell_length_b       30
_cell_length_c       30
_cell_angle_alpha    90
_cell_angle_beta     90
_cell_angle_gamma    90

_space_group_name_H-M_alt    "P 1"
_space_group_IT_number       1

loop_
  _space_group_symop_operation_xyz
  'x, y, z'

loop_
  _atom_site_type_symbol
  _atom_site_label
  _atom_site_symmetry_multiplicity
  _atom_site_fract_x
  _atom_site_fract_y
  _atom_site_fract_z
  _atom_site_occupancy
  O   O1        1.0  0.11707  0.95469  0.05949  1.0000
  C   C1        1.0  0.07635  0.97495  0.04346  1.0000
  C   C2        1.0  0.08774  0.01579  0.01460  1.0000
  C   C3        1.0  0.12676  0.01328  0.98827  1.0000
  C   C4        1.0  0.14165  0.04915  0.96264  1.0000
  C   C5        1.0  0.11791  0.08880  0.96247  1.0000
  C   C6        1.0  0.07879  0.09231  0.98727  1.0000
  C   C7        1.0  0.06273  0.05631  0.01289  1.0000
  S   S1        1.0  0.00809  0.06798  0.03763  1.0000
  C   C8        1.0  0.97688  0.02642  0.00717  1.0000
  N   N1        1.0  0.98822  0.98638  0.03050  1.0000
  C   C9        1.0  0.00532  0.95464  0.99930  1.0000
  C   C10       1.0  0.96758  0.92374  0.98483  1.0000
  C   C11       1.0  0.91916  0.93975  0.99495  1.0000
  C   C12       1.0  0.90244  0.98801  0.98970  1.0000
  C   C13       1.0  0.85682  0.99239  0.97905  1.0000
  C   C14       1.0  0.83614  0.03397  0.97681  1.0000
  C   C15       1.0  0.86040  0.07238  0.98554  1.0000
  C   C16       1.0  0.90545  0.06935  0.99649  1.0000
  C   C17       1.0  0.92710  0.02777  0.99937  1.0000
  C   C18       1.0  0.04744  0.93626  0.02187  1.0000
  O   O2        1.0  0.07466  0.91151  0.99113  1.0000
  H   H1        1.0  0.12243  0.92994  0.03900  1.0000
  H   H2        1.0  0.05995  0.98708  0.07377  1.0000
  H   H3        1.0  0.14662  0.98291  0.98806  1.0000
  H   H4        1.0  0.17210  0.04605  0.94326  1.0000
  H   H5        1.0  0.12957  0.11694  0.94288  1.0000
  H   H6        1.0  0.06044  0.12359  0.98597  1.0000
  H   H7        1.0  0.99031  0.02875  0.97318  1.0000
  H   H8        1.0  0.96427  0.97633  0.05213  1.0000
  H   H9        1.0  0.01776  0.96957  0.96821  1.0000
  H   H10       1.0  0.97187  0.89071  0.99995  1.0000
  H   H11       1.0  0.97023  0.91873  0.94866  1.0000
  H   H12       1.0  0.89759  0.91819  0.97463  1.0000
  H   H13       1.0  0.91166  0.93053  0.02963  1.0000
  H   H14       1.0  0.83660  0.96291  0.97272  1.0000
  H   H15       1.0  0.80096  0.03627  0.96845  1.0000
  H   H16       1.0  0.84437  0.10482  0.98370  1.0000
  H   H17       1.0  0.92371  0.10013  0.00244  1.0000
  H   H18       1.0  0.03866  0.91280  0.04855  1.0000
  H   H19       1.0  0.05619  0.88789  0.97875  1.0000
