data_image0
_chemical_formula_structural       OC5SC16OC2H26
_chemical_formula_sum              "O2 C23 S1 H26"
_cell_length_a       30
_cell_length_b       30
_cell_length_c       30
_cell_angle_alpha    90
_cell_angle_beta     90
_cell_angle_gamma    90

_space_group_name_H-M_alt    "P 1"
_space_group_IT_number       1

loop_
  _space_group_symop_operation_xyz
  'x, y, z'

loop_
  _atom_site_type_symbol
  _atom_site_label
  _atom_site_symmetry_multiplicity
  _atom_site_fract_x
  _atom_site_fract_y
  _atom_site_fract_z
  _atom_site_occupancy
  O   O1        1.0  0.02863  0.92445  0.99055  1.0000
  C   C1        1.0  0.99362  0.95272  0.97392  1.0000
  C   C2        1.0  0.00357  0.00343  0.96742  1.0000
  C   C3        1.0  0.04895  0.02432  0.95456  1.0000
  C   C4        1.0  0.05992  0.01575  0.90526  1.0000
  C   C5        1.0  0.07405  0.96824  0.89521  1.0000
  S   S1        1.0  0.12518  0.95293  0.92329  1.0000
  C   C6        1.0  0.12004  0.98126  0.97536  1.0000
  C   C7        1.0  0.15353  0.97195  0.00677  1.0000
  C   C8        1.0  0.15481  0.99367  0.04783  1.0000
  C   C9        1.0  0.12288  0.02559  0.05779  1.0000
  C   C10       1.0  0.08946  0.03513  0.02695  1.0000
  C   C11       1.0  0.08676  0.01252  0.98579  1.0000
  C   C12       1.0  0.98295  0.01089  0.01506  1.0000
  C   C13       1.0  0.95641  0.05555  0.02629  1.0000
  C   C14       1.0  0.94949  0.09027  0.99544  1.0000
  C   C15       1.0  0.92615  0.12908  0.00659  1.0000
  C   C16       1.0  0.90894  0.13442  0.04926  1.0000
  C   C17       1.0  0.91516  0.10101  0.08071  1.0000
  C   C18       1.0  0.93855  0.06238  0.06926  1.0000
  C   C19       1.0  0.95624  0.96616  0.00810  1.0000
  C   C20       1.0  0.90933  0.97049  0.98758  1.0000
  C   C21       1.0  0.88970  0.92414  0.98017  1.0000
  O   O2        1.0  0.88813  0.89996  0.02116  1.0000
  C   C22       1.0  0.93176  0.89295  0.03906  1.0000
  C   C23       1.0  0.95318  0.93757  0.05051  1.0000
  H   H1        1.0  0.04446  0.94140  0.01325  1.0000
  H   H2        1.0  0.98038  0.93745  0.94349  1.0000
  H   H3        1.0  0.98043  0.01615  0.94177  1.0000
  H   H4        1.0  0.04470  0.06067  0.95685  1.0000
  H   H5        1.0  0.08645  0.03866  0.89462  1.0000
  H   H6        1.0  0.03083  0.02390  0.88463  1.0000
  H   H7        1.0  0.07985  0.96472  0.85934  1.0000
  H   H8        1.0  0.04805  0.94428  0.90379  1.0000
  H   H9        1.0  0.17945  0.94770  0.99916  1.0000
  H   H10       1.0  0.18111  0.98607  0.07154  1.0000
  H   H11       1.0  0.12407  0.04332  0.08938  1.0000
  H   H12       1.0  0.06523  0.06088  0.03528  1.0000
  H   H13       1.0  0.00806  0.00592  0.04132  1.0000
  H   H14       1.0  0.96244  0.08748  0.96172  1.0000
  H   H15       1.0  0.92146  0.15509  0.98180  1.0000
  H   H16       1.0  0.89077  0.16451  0.05798  1.0000
  H   H17       1.0  0.90184  0.10484  0.11418  1.0000
  H   H18       1.0  0.94298  0.03671  0.09454  1.0000
  H   H19       1.0  0.90986  0.98885  0.95604  1.0000
  H   H20       1.0  0.88768  0.98884  0.01064  1.0000
  H   H21       1.0  0.85551  0.92710  0.96779  1.0000
  H   H22       1.0  0.90869  0.90500  0.95553  1.0000
  H   H23       1.0  0.95176  0.87375  0.01527  1.0000
  H   H24       1.0  0.92815  0.87285  0.06929  1.0000
  H   H25       1.0  0.98594  0.93221  0.06569  1.0000
  H   H26       1.0  0.93248  0.95483  0.07522  1.0000
