data_image0
_chemical_formula_structural       OC8NCBrCH8
_chemical_formula_sum              "O1 C10 N1 Br1 H8"
_cell_length_a       30
_cell_length_b       30
_cell_length_c       30
_cell_angle_alpha    90
_cell_angle_beta     90
_cell_angle_gamma    90

_space_group_name_H-M_alt    "P 1"
_space_group_IT_number       1

loop_
  _space_group_symop_operation_xyz
  'x, y, z'

loop_
  _atom_site_type_symbol
  _atom_site_label
  _atom_site_symmetry_multiplicity
  _atom_site_fract_x
  _atom_site_fract_y
  _atom_site_fract_z
  _atom_site_occupancy
  O   O1        1.0  0.90203  0.94956  0.03954  1.0000
  C   C1        1.0  0.93888  0.94721  0.00969  1.0000
  C   C2        1.0  0.96210  0.99168  0.00561  1.0000
  C   C3        1.0  0.00833  0.99547  0.99612  1.0000
  C   C4        1.0  0.03735  0.95875  0.98975  1.0000
  C   C5        1.0  0.08258  0.96488  0.98082  1.0000
  C   C6        1.0  0.09968  0.00771  0.97795  1.0000
  C   C7        1.0  0.07140  0.04415  0.98382  1.0000
  C   C8        1.0  0.02628  0.03900  0.99264  1.0000
  N   N1        1.0  0.00176  0.07605  0.99724  1.0000
  C   C9        1.0  0.95780  0.07153  0.00494  1.0000
  Br  Br1       1.0  0.92350  0.12436  0.01031  1.0000
  C   C10       1.0  0.93675  0.03079  0.00909  1.0000
  H   H1        1.0  0.91366  0.95996  0.06798  1.0000
  H   H2        1.0  0.92660  0.93666  0.97700  1.0000
  H   H3        1.0  0.96095  0.92141  0.02287  1.0000
  H   H4        1.0  0.02522  0.92466  0.99141  1.0000
  H   H5        1.0  0.10427  0.93625  0.97606  1.0000
  H   H6        1.0  0.13484  0.01301  0.97100  1.0000
  H   H7        1.0  0.08498  0.07769  0.98128  1.0000
  H   H8        1.0  0.90103  0.02922  0.01488  1.0000
