data_image0
_chemical_formula_structural       OC5NC3NC6SC5NC2H29
_chemical_formula_sum              "O1 C21 N3 S1 H29"
_cell_length_a       30
_cell_length_b       30
_cell_length_c       30
_cell_angle_alpha    90
_cell_angle_beta     90
_cell_angle_gamma    90

_space_group_name_H-M_alt    "P 1"
_space_group_IT_number       1

loop_
  _space_group_symop_operation_xyz
  'x, y, z'

loop_
  _atom_site_type_symbol
  _atom_site_label
  _atom_site_symmetry_multiplicity
  _atom_site_fract_x
  _atom_site_fract_y
  _atom_site_fract_z
  _atom_site_occupancy
  O   O1        1.0  0.83400  0.88842  0.06818  1.0000
  C   C1        1.0  0.84525  0.89518  0.02266  1.0000
  C   C2        1.0  0.84447  0.94478  0.01124  1.0000
  C   C3        1.0  0.85420  0.95317  0.96171  1.0000
  C   C4        1.0  0.88420  0.99411  0.96102  1.0000
  C   C5        1.0  0.91345  0.98717  0.00215  1.0000
  N   N1        1.0  0.93731  0.02685  0.01717  1.0000
  C   C6        1.0  0.97481  0.04007  0.98822  1.0000
  C   C7        1.0  0.01627  0.01077  0.99767  1.0000
  C   C8        1.0  0.05448  0.01987  0.96460  1.0000
  N   N2        1.0  0.09509  0.99303  0.96993  1.0000
  C   C9        1.0  0.08731  0.94455  0.96675  1.0000
  C   C10       1.0  0.13138  0.91858  0.96065  1.0000
  C   C11       1.0  0.16574  0.93649  0.99196  1.0000
  C   C12       1.0  0.16134  0.97651  0.01431  1.0000
  C   C13       1.0  0.19984  0.98539  0.04094  1.0000
  C   C14       1.0  0.23147  0.95222  0.03732  1.0000
  S   S1        1.0  0.21485  0.91040  0.00217  1.0000
  C   C15       1.0  0.12023  0.00501  0.01056  1.0000
  C   C16       1.0  0.98482  0.08918  0.99549  1.0000
  C   C17       1.0  0.99616  0.10645  0.03734  1.0000
  C   C18       1.0  0.00513  0.15170  0.04207  1.0000
  C   C19       1.0  0.00238  0.17854  0.00465  1.0000
  N   N3        1.0  0.99138  0.16335  0.96375  1.0000
  C   C20       1.0  0.98285  0.11923  0.96014  1.0000
  C   C21       1.0  0.87945  0.97204  0.03719  1.0000
  H   H1        1.0  0.80433  0.90057  0.07292  1.0000
  H   H2        1.0  0.82139  0.87669  0.00216  1.0000
  H   H3        1.0  0.87836  0.88089  0.01707  1.0000
  H   H4        1.0  0.81146  0.95811  0.01974  1.0000
  H   H5        1.0  0.87176  0.92480  0.94674  1.0000
  H   H6        1.0  0.82358  0.95859  0.94260  1.0000
  H   H7        1.0  0.90335  0.99619  0.93007  1.0000
  H   H8        1.0  0.86401  0.02444  0.96405  1.0000
  H   H9        1.0  0.93652  0.95942  0.99631  1.0000
  H   H10       1.0  0.91526  0.05273  0.01894  1.0000
  H   H11       1.0  0.96519  0.03571  0.95322  1.0000
  H   H12       1.0  0.00694  0.97558  0.99504  1.0000
  H   H13       1.0  0.02775  0.01593  0.03197  1.0000
  H   H14       1.0  0.04195  0.01457  0.93062  1.0000
  H   H15       1.0  0.06402  0.05513  0.96582  1.0000
  H   H16       1.0  0.07022  0.93236  0.99674  1.0000
  H   H17       1.0  0.06580  0.93694  0.93819  1.0000
  H   H18       1.0  0.14327  0.92265  0.92631  1.0000
  H   H19       1.0  0.12550  0.88300  0.96644  1.0000
  H   H20       1.0  0.20421  0.01465  0.06162  1.0000
  H   H21       1.0  0.26357  0.95045  0.05358  1.0000
  H   H22       1.0  0.10019  0.00029  0.04075  1.0000
  H   H23       1.0  0.13030  0.04011  0.00883  1.0000
  H   H24       1.0  0.99773  0.08471  0.06631  1.0000
  H   H25       1.0  0.01398  0.16568  0.07420  1.0000
  H   H26       1.0  0.00909  0.21406  0.00665  1.0000
  H   H27       1.0  0.97414  0.10848  0.92665  1.0000
  H   H28       1.0  0.86285  0.00088  0.05243  1.0000
  H   H29       1.0  0.89543  0.95335  0.06417  1.0000
