data_image0
_chemical_formula_structural       OC8OCOC5NC2H23
_chemical_formula_sum              "O3 C16 N1 H23"
_cell_length_a       30
_cell_length_b       30
_cell_length_c       30
_cell_angle_alpha    90
_cell_angle_beta     90
_cell_angle_gamma    90

_space_group_name_H-M_alt    "P 1"
_space_group_IT_number       1

loop_
  _space_group_symop_operation_xyz
  'x, y, z'

loop_
  _atom_site_type_symbol
  _atom_site_label
  _atom_site_symmetry_multiplicity
  _atom_site_fract_x
  _atom_site_fract_y
  _atom_site_fract_z
  _atom_site_occupancy
  O   O1        1.0  0.95227  0.91937  0.96866  1.0000
  C   C1        1.0  0.93787  0.96330  0.95811  1.0000
  C   C2        1.0  0.94774  0.99643  0.99632  1.0000
  C   C3        1.0  0.99908  0.99761  0.00701  1.0000
  C   C4        1.0  0.03051  0.00694  0.96766  1.0000
  C   C5        1.0  0.07863  0.00778  0.98260  1.0000
  C   C6        1.0  0.09764  0.04775  0.99879  1.0000
  C   C7        1.0  0.14191  0.04910  0.01332  1.0000
  C   C8        1.0  0.16620  0.01019  0.01143  1.0000
  O   O2        1.0  0.20943  0.00528  0.02412  1.0000
  C   C9        1.0  0.21631  0.95860  0.01481  1.0000
  O   O3        1.0  0.17743  0.93668  0.99690  1.0000
  C   C10       1.0  0.14797  0.97112  0.99591  1.0000
  C   C11       1.0  0.10443  0.96875  0.98136  1.0000
  C   C12       1.0  0.93235  0.04434  0.98433  1.0000
  C   C13       1.0  0.88583  0.05127  0.96441  1.0000
  C   C14       1.0  0.84633  0.02671  0.98506  1.0000
  N   N1        1.0  0.85020  0.01721  0.03235  1.0000
  C   C15       1.0  0.87457  0.97608  0.04109  1.0000
  C   C16       1.0  0.92522  0.98121  0.04067  1.0000
  H   H1        1.0  0.98464  0.91881  0.96787  1.0000
  H   H2        1.0  0.90227  0.96092  0.95107  1.0000
  H   H3        1.0  0.95373  0.97354  0.92687  1.0000
  H   H4        1.0  0.00894  0.96574  0.02215  1.0000
  H   H5        1.0  0.00496  0.02281  0.03297  1.0000
  H   H6        1.0  0.02686  0.98147  0.94175  1.0000
  H   H7        1.0  0.02281  0.03883  0.95169  1.0000
  H   H8        1.0  0.07776  0.07807  0.00013  1.0000
  H   H9        1.0  0.15667  0.07966  0.02572  1.0000
  H   H10       1.0  0.24364  0.95539  0.99078  1.0000
  H   H11       1.0  0.22594  0.94181  0.04580  1.0000
  H   H12       1.0  0.09096  0.93741  0.96940  1.0000
  H   H13       1.0  0.95557  0.05908  0.96030  1.0000
  H   H14       1.0  0.93520  0.06535  0.01421  1.0000
  H   H15       1.0  0.87893  0.08721  0.96576  1.0000
  H   H16       1.0  0.88691  0.04297  0.92878  1.0000
  H   H17       1.0  0.81674  0.04770  0.98042  1.0000
  H   H18       1.0  0.83879  0.99635  0.96616  1.0000
  H   H19       1.0  0.86401  0.04333  0.04907  1.0000
  H   H20       1.0  0.86385  0.94909  0.01892  1.0000
  H   H21       1.0  0.86506  0.96511  0.07466  1.0000
  H   H22       1.0  0.93447  0.00462  0.06731  1.0000
  H   H23       1.0  0.93935  0.94900  0.05088  1.0000
