data_image0
_chemical_formula_structural       SCNC4ClC8H16
_chemical_formula_sum              "S1 C13 N1 Cl1 H16"
_cell_length_a       30
_cell_length_b       30
_cell_length_c       30
_cell_angle_alpha    90
_cell_angle_beta     90
_cell_angle_gamma    90

_space_group_name_H-M_alt    "P 1"
_space_group_IT_number       1

loop_
  _space_group_symop_operation_xyz
  'x, y, z'

loop_
  _atom_site_type_symbol
  _atom_site_label
  _atom_site_symmetry_multiplicity
  _atom_site_fract_x
  _atom_site_fract_y
  _atom_site_fract_z
  _atom_site_occupancy
  S   S1        1.0  0.99479  0.06820  0.91199  1.0000
  C   C1        1.0  0.98510  0.03758  0.95809  1.0000
  N   N1        1.0  0.95178  0.05229  0.98491  1.0000
  C   C2        1.0  0.93154  0.03296  0.02436  1.0000
  C   C3        1.0  0.89357  0.00146  0.01230  1.0000
  C   C4        1.0  0.90655  0.95288  0.00363  1.0000
  C   C5        1.0  0.94418  0.94555  0.96981  1.0000
  Cl  Cl1       1.0  0.94278  0.88769  0.95338  1.0000
  C   C6        1.0  0.99039  0.95587  0.98938  1.0000
  C   C7        1.0  0.01368  0.99625  0.96802  1.0000
  C   C8        1.0  0.05649  0.00715  0.99348  1.0000
  C   C9        1.0  0.05755  0.03762  0.02892  1.0000
  C   C10       1.0  0.09719  0.04604  0.05187  1.0000
  C   C11       1.0  0.13625  0.02401  0.03989  1.0000
  C   C12       1.0  0.13575  0.99350  0.00494  1.0000
  C   C13       1.0  0.09618  0.98507  0.98196  1.0000
  H   H1        1.0  0.93668  0.08015  0.97288  1.0000
  H   H2        1.0  0.91781  0.06127  0.04293  1.0000
  H   H3        1.0  0.95654  0.01748  0.04571  1.0000
  H   H4        1.0  0.86964  0.00132  0.03998  1.0000
  H   H5        1.0  0.87546  0.01434  0.98323  1.0000
  H   H6        1.0  0.91530  0.93708  0.03547  1.0000
  H   H7        1.0  0.87624  0.93587  0.99212  1.0000
  H   H8        1.0  0.93761  0.96408  0.93911  1.0000
  H   H9        1.0  0.01277  0.92720  0.98476  1.0000
  H   H10       1.0  0.98869  0.95944  0.02569  1.0000
  H   H11       1.0  0.02433  0.98424  0.93496  1.0000
  H   H12       1.0  0.02778  0.05553  0.03910  1.0000
  H   H13       1.0  0.09758  0.06994  0.07910  1.0000
  H   H14       1.0  0.16706  0.03066  0.05774  1.0000
  H   H15       1.0  0.16618  0.97625  0.99550  1.0000
  H   H16       1.0  0.09658  0.96103  0.95478  1.0000
